<?xml version="1.0" encoding="UTF-8"?>

<!-- generated on Wed 28 Nov 2018 02:50:22 PM +03 by Netedit Version 0.32.0
<?xml version="1.0" encoding="UTF-8"?>

<configuration xmlns:xsi="http://www.w3.org/2001/XMLSchema-instance" xsi:noNamespaceSchemaLocation="http://sumo.dlr.de/xsd/netconvertConfiguration.xsd">

    <input>
        <sumo-net-file value="/home/gvantini/TLRL/gharrafa.net.xml"/>
    </input>

    <output>
        <output-file value="/home/gvantini/TLRL/gharrafa.net.xml"/>
        <plain-output-prefix value="/home/gvantini/TLRL/gharrafa"/>
    </output>

    <processing>
        <no-turnarounds value="true"/>
        <offset.disable-normalization value="true"/>
        <lefthand value="false"/>
        <junctions.corner-detail value="0"/>
        <rectangular-lane-cut value="false"/>
        <walkingareas value="false"/>
    </processing>

    <visualisation>
        <registry-viewport value="true"/>
    </visualisation>

</configuration>
-->

<connections version="0.27" xmlns:xsi="http://www.w3.org/2001/XMLSchema-instance" xsi:noNamespaceSchemaLocation="http://sumo.dlr.de/xsd/connections_file.xsd">
    <connection from="-1184" to="6208" fromLane="0" toLane="0" keepClear="0"/>

    <connection from="-11866" to="-11998" fromLane="0" toLane="0"/>
    <connection from="-11866" to="11866" fromLane="0" toLane="0"/>

    <connection from="-11998" to="12051" fromLane="0" toLane="0"/>
    <connection from="-11998" to="11998" fromLane="0" toLane="0"/>

    <connection from="-12387" to="11784" fromLane="0" toLane="0"/>

    <connection from="-12388" to="12108" fromLane="0" toLane="0"/>

    <connection from="-1286" to="7599" fromLane="0" toLane="0" keepClear="0"/>

    <connection from="-1317" to="7590" fromLane="0" toLane="0"/>

    <connection from="-2399" to="7644" fromLane="0" toLane="0"/>
    <connection from="-2399" to="-2547" fromLane="0" toLane="0"/>

    <connection from="-2436" to="3721" fromLane="0" toLane="0"/>
    <connection from="-2436" to="3722" fromLane="0" toLane="0"/>

    <connection from="-2547" to="7665" fromLane="0" toLane="0"/>
    <connection from="-2547" to="-2399" fromLane="0" toLane="0"/>

    <connection from="-6208" to="1184" fromLane="0" toLane="0" keepClear="0"/>
    <connection from="-6208" to="6208" fromLane="0" toLane="0" keepClear="0"/>

    <connection from="-6487" to="5652" fromLane="0" toLane="0"/>

    <connection from="-6488" to="-1184" fromLane="0" toLane="0"/>

    <connection from="-7573"/>

    <connection from="-7638" to="7623" fromLane="0" toLane="0"/>

    <connection from="-7642" to="7763" fromLane="0" toLane="0"/>
    <connection from="-7642" to="7769" fromLane="0" toLane="0"/>

    <connection from="-7643" to="-7642" fromLane="0" toLane="0"/>
    <connection from="-7643" to="7643" fromLane="0" toLane="0"/>

    <connection from="-7644" to="-2547" fromLane="0" toLane="0"/>
    <connection from="-7644" to="7644" fromLane="0" toLane="0"/>

    <connection from="-7749" to="8103" fromLane="0" toLane="0"/>
    <connection from="-7749" to="-2436" fromLane="0" toLane="0"/>

    <connection from="-7769" to="7642" fromLane="0" toLane="0"/>
    <connection from="-7769" to="7763" fromLane="0" toLane="0"/>
    <connection from="-7769" to="7769" fromLane="0" toLane="0"/>

    <connection from="-7770" to="8101" fromLane="0" toLane="0"/>
    <connection from="-7770" to="7764" fromLane="0" toLane="0"/>

    <connection from="-7774" to="-7749" fromLane="0" toLane="0"/>
    <connection from="-7774" to="7765" fromLane="0" toLane="0"/>

    <connection from="-8102" to="7764" fromLane="0" toLane="0"/>
    <connection from="-8102" to="7770" fromLane="0" toLane="0"/>

    <connection from="-8103" to="-2436" fromLane="0" toLane="0"/>
    <connection from="-8103" to="7746" fromLane="0" toLane="0"/>

    <connection from="10324" to="7566" fromLane="0" toLane="0"/>
    <connection from="10324" to="7574" fromLane="0" toLane="0"/>

    <connection from="10339" to="7563" fromLane="0" toLane="0" pass="1"/>
    <connection from="10339" to="7562" fromLane="0" toLane="0"/>
    <connection from="10339" to="7562" fromLane="0" toLane="1"/>
    <connection from="10339" to="7563" fromLane="1" toLane="0"/>
    <connection from="10339" to="7562" fromLane="1" toLane="0"/>
    <connection from="10339" to="7562" fromLane="1" toLane="1"/>
    <connection from="10339" to="7562" fromLane="1" toLane="2"/>
    <connection from="10339" to="7562" fromLane="2" toLane="1"/>
    <connection from="10339" to="7562" fromLane="2" toLane="2"/>

    <connection from="10342.0" to="10423" fromLane="0" toLane="0"/>
    <connection from="10342.0" to="10423" fromLane="0" toLane="1"/>
    <connection from="10342.0" to="10342.32" fromLane="1" toLane="0"/>
    <connection from="10342.0" to="10342.32" fromLane="1" toLane="1"/>

    <connection from="10342.32" to="6039" fromLane="0" toLane="2"/>
    <connection from="10342.32" to="6039" fromLane="1" toLane="3"/>

    <connection from="10391" to="10392" fromLane="0" toLane="0"/>
    <connection from="10391" to="10392" fromLane="1" toLane="1"/>

    <connection from="10392" to="10466" fromLane="0" toLane="0"/>
    <connection from="10392" to="10466" fromLane="1" toLane="1"/>

    <connection from="10393" to="10394" fromLane="0" toLane="0" pass="1"/>
    <connection from="10393" to="10394" fromLane="0" toLane="1"/>
    <connection from="10393" to="10468" fromLane="0" toLane="0"/>
    <connection from="10393" to="10394" fromLane="1" toLane="1"/>
    <connection from="10393" to="10394" fromLane="1" toLane="2" pass="1"/>
    <connection from="10393" to="10468" fromLane="1" toLane="1"/>

    <connection from="10423" to="10424" fromLane="0" toLane="0"/>
    <connection from="10423" to="10424" fromLane="1" toLane="0"/>
    <connection from="10423" to="10424" fromLane="1" toLane="1"/>

    <connection from="10424" to="6046" fromLane="0" toLane="0"/>
    <connection from="10424" to="6042" fromLane="0" toLane="0"/>
    <connection from="10424" to="6042" fromLane="1" toLane="1"/>

    <connection from="10464" to="5654" fromLane="0" toLane="0"/>

    <connection from="10466" to="10464" fromLane="0" toLane="0"/>
    <connection from="10466" to="10467" fromLane="0" toLane="0"/>
    <connection from="10466" to="10464" fromLane="1" toLane="0"/>
    <connection from="10466" to="10467" fromLane="1" toLane="1"/>

    <connection from="10467" to="10393" fromLane="0" toLane="0" pass="1"/>
    <connection from="10467" to="10393" fromLane="1" toLane="1" pass="1"/>

    <connection from="10468" to="10469" fromLane="0" toLane="0" pass="1"/>
    <connection from="10468" to="10469" fromLane="1" toLane="1" pass="1"/>

    <connection from="10469" to="10466" fromLane="0" toLane="0" pass="1"/>
    <connection from="10469" to="10466" fromLane="0" toLane="1"/>
    <connection from="10469" to="10466" fromLane="1" toLane="1" pass="1"/>

    <connection from="10471" to="10469" fromLane="0" toLane="0"/>
    <connection from="10471" to="10469" fromLane="1" toLane="1"/>
    <connection from="10471" to="10469" fromLane="2" toLane="1"/>

    <connection from="1153" to="7575" fromLane="0" toLane="0"/>

    <connection from="11597" to="12338" fromLane="0" toLane="0"/>
    <connection from="11597" to="12338" fromLane="0" toLane="1"/>
    <connection from="11597" to="12338" fromLane="1" toLane="0"/>
    <connection from="11597" to="12338" fromLane="1" toLane="1"/>

    <connection from="11784" to="12093" fromLane="0" toLane="0"/>
    <connection from="11784" to="11923" fromLane="0" toLane="0"/>

    <connection from="11800" to="12020" fromLane="0" toLane="0"/>
    <connection from="11800" to="12283" fromLane="0" toLane="0"/>

    <connection from="1184" to="-1317" fromLane="0" toLane="0"/>

    <connection from="11840" to="12396" fromLane="0" toLane="0"/>
    <connection from="11840" to="12396" fromLane="0" toLane="1"/>
    <connection from="11840" to="11889" fromLane="0" toLane="0"/>

    <connection from="11866" to="7669" fromLane="0" toLane="0"/>

    <connection from="11869" to="11840" fromLane="0" toLane="0"/>

    <connection from="11880" to="12262" fromLane="0" toLane="0"/>
    <connection from="11880" to="11869" fromLane="0" toLane="0"/>

    <connection from="11889" to="11880" fromLane="0" toLane="0"/>

    <connection from="11902" to="12387" fromLane="0" toLane="0"/>

    <connection from="11923" to="11800" fromLane="0" toLane="0"/>

    <connection from="11998" to="11866" fromLane="0" toLane="0"/>
    <connection from="11998" to="-11998" fromLane="0" toLane="0"/>

    <connection from="12004" to="11800" fromLane="0" toLane="0"/>

    <connection from="12020" to="11998" fromLane="0" toLane="0"/>
    <connection from="12020" to="12051" fromLane="0" toLane="0"/>

    <connection from="12051" to="12130" fromLane="0" toLane="0"/>

    <connection from="12093"/>

    <connection from="12108" to="11840" fromLane="0" toLane="0"/>

    <connection from="12130" to="11902" fromLane="0" toLane="0"/>
    <connection from="12130" to="12203" fromLane="0" toLane="0"/>

    <connection from="12203" to="12093" fromLane="0" toLane="0"/>
    <connection from="12203" to="11923" fromLane="0" toLane="0"/>

    <connection from="12262" to="12388" fromLane="0" toLane="0"/>

    <connection from="12283" to="12130" fromLane="0" toLane="0"/>

    <connection from="12338" to="7676" fromLane="0" toLane="0" pass="1"/>
    <connection from="12338" to="7675" fromLane="0" toLane="0" pass="1"/>
    <connection from="12338" to="7675" fromLane="1" toLane="1" keepClear="0"/>
    <connection from="12338" to="7675" fromLane="1" toLane="2"/>

    <connection from="12387" to="-12388" fromLane="0" toLane="0"/>
    <connection from="12387" to="-12387" fromLane="0" toLane="0"/>

    <connection from="12388" to="-12387" fromLane="0" toLane="0"/>
    <connection from="12388" to="-12388" fromLane="0" toLane="0"/>

    <connection from="12405" to="11880" fromLane="0" toLane="0"/>
    <connection from="12405" to="11880" fromLane="1" toLane="0"/>

    <connection from="12527" to="7680" fromLane="0" toLane="0" keepClear="0"/>
    <connection from="12527" to="7680" fromLane="1" toLane="1" keepClear="0"/>
    <connection from="12527" to="7680" fromLane="2" toLane="2" keepClear="0"/>

    <connection from="1286"/>

    <connection from="3721" to="7690" fromLane="0" toLane="0" keepClear="0"/>

    <connection from="3722" to="7746" fromLane="0" toLane="0"/>
    <connection from="3722" to="8103" fromLane="0" toLane="0"/>

    <connection from="5304" to="5305" fromLane="0" toLane="0"/>

    <connection from="5305" to="7803" fromLane="0" toLane="0" keepClear="0"/>
    <connection from="5305" to="7802" fromLane="0" toLane="0" keepClear="0"/>

    <connection from="5323" to="6513" fromLane="0" toLane="0" keepClear="0"/>
    <connection from="5323" to="6513" fromLane="1" toLane="1" keepClear="0"/>

    <connection from="5349" to="7523" fromLane="0" toLane="0"/>
    <connection from="5349" to="6117" fromLane="0" toLane="0"/>
    <connection from="5349" to="6117" fromLane="1" toLane="1"/>
    <connection from="5349" to="6117" fromLane="2" toLane="2"/>

    <connection from="5484" to="5485" fromLane="0" toLane="0"/>
    <connection from="5484" to="5485" fromLane="1" toLane="1"/>
    <connection from="5484" to="5485" fromLane="1" toLane="2"/>

    <connection from="5485" to="7798" fromLane="0" toLane="0" keepClear="0"/>
    <connection from="5485" to="7801" fromLane="0" toLane="0" keepClear="0"/>
    <connection from="5485" to="7801" fromLane="0" toLane="1"/>
    <connection from="5485" to="7801" fromLane="1" toLane="1" keepClear="0"/>
    <connection from="5485" to="7801" fromLane="1" toLane="2"/>
    <connection from="5485" to="7801" fromLane="2" toLane="1"/>
    <connection from="5485" to="7801" fromLane="2" toLane="2" keepClear="0"/>

    <connection from="5652" to="10393" fromLane="0" toLane="0"/>
    <connection from="5652" to="10393" fromLane="0" toLane="1"/>

    <connection from="5654" to="-6487" fromLane="0" toLane="0"/>

    <connection from="6038" to="6041" fromLane="0" toLane="0"/>
    <connection from="6038" to="6041" fromLane="1" toLane="1"/>

    <connection from="6039" to="7359" fromLane="0" toLane="0" pass="1"/>
    <connection from="6039" to="7359" fromLane="1" toLane="1"/>
    <connection from="6039" to="7359" fromLane="2" toLane="2"/>
    <connection from="6039" to="7359" fromLane="3" toLane="3"/>

    <connection from="6040" to="7593" fromLane="0" toLane="0"/>
    <connection from="6040" to="7593" fromLane="1" toLane="1"/>
    <connection from="6040" to="7593" fromLane="2" toLane="2"/>
    <connection from="6040" to="7593" fromLane="3" toLane="3"/>

    <connection from="6041" to="10410" fromLane="0" toLane="0"/>
    <connection from="6041" to="10410" fromLane="1" toLane="1"/>

    <connection from="6042" to="6045" fromLane="0" toLane="0"/>
    <connection from="6042" to="6045" fromLane="1" toLane="1"/>

    <connection from="6043" to="10324" fromLane="0" toLane="0"/>

    <connection from="6044" to="6039" fromLane="0" toLane="0"/>
    <connection from="6044" to="6039" fromLane="1" toLane="1"/>
    <connection from="6044" to="6039" fromLane="2" toLane="2"/>
    <connection from="6044" to="6039" fromLane="3" toLane="3"/>

    <connection from="6045" to="7596" fromLane="0" toLane="0"/>
    <connection from="6045" to="7596" fromLane="1" toLane="0" pass="1"/>

    <connection from="6046" to="6043" fromLane="0" toLane="0"/>
    <connection from="6046" to="7594" fromLane="0" toLane="0" keepClear="0"/>

    <connection from="6116" to="6515" fromLane="0" toLane="0"/>
    <connection from="6116" to="6515" fromLane="1" toLane="1"/>
    <connection from="6116" to="6515" fromLane="2" toLane="2"/>

    <connection from="6117" to="7532" fromLane="0" toLane="0"/>
    <connection from="6117" to="7532" fromLane="1" toLane="1"/>
    <connection from="6117" to="6121" fromLane="2" toLane="1"/>

    <connection from="6119" to="6121" fromLane="0" toLane="0"/>
    <connection from="6119" to="6121" fromLane="1" toLane="1"/>
    <connection from="6119" to="6116" fromLane="1" toLane="2"/>

    <connection from="6121" to="6659" fromLane="0" toLane="0"/>
    <connection from="6121" to="6659" fromLane="1" toLane="1"/>

    <connection from="6123" to="7537" fromLane="0" toLane="0" pass="1"/>
    <connection from="6123" to="7537" fromLane="1" toLane="1"/>

    <connection from="6124" to="7565" fromLane="0" toLane="0" keepClear="0"/>
    <connection from="6124" to="7560" fromLane="0" toLane="0" keepClear="0"/>
    <connection from="6124" to="7560" fromLane="1" toLane="1" keepClear="0"/>
    <connection from="6124" to="7560" fromLane="2" toLane="2" keepClear="0"/>

    <connection from="6208" to="7595" fromLane="0" toLane="0" keepClear="0"/>
    <connection from="6208" to="7597" fromLane="0" toLane="0" keepClear="0"/>

    <connection from="6483" to="7534" fromLane="0" toLane="0"/>
    <connection from="6483" to="6539" fromLane="0" toLane="0"/>
    <connection from="6483" to="6539" fromLane="1" toLane="1"/>

    <connection from="6489" to="5485" fromLane="0" toLane="0"/>
    <connection from="6489" to="5485" fromLane="0" toLane="1"/>
    <connection from="6489" to="5485" fromLane="1" toLane="1"/>
    <connection from="6489" to="5485" fromLane="1" toLane="2"/>
    <connection from="6489" to="5485" fromLane="2" toLane="1"/>
    <connection from="6489" to="5485" fromLane="2" toLane="2"/>

    <connection from="6511" to="7542" fromLane="0" toLane="0" pass="1"/>
    <connection from="6511" to="7542" fromLane="0" toLane="1"/>
    <connection from="6511" to="7545" fromLane="1" toLane="0"/>
    <connection from="6511" to="7545" fromLane="1" toLane="1"/>
    <connection from="6511" to="7542" fromLane="1" toLane="1" pass="1"/>
    <connection from="6511" to="7545" fromLane="2" toLane="1"/>
    <connection from="6511" to="7545" fromLane="2" toLane="2" pass="1"/>

    <connection from="6513" to="7546" fromLane="0" toLane="0"/>
    <connection from="6513" to="7546" fromLane="1" toLane="0" pass="1"/>

    <connection from="6522" to="10339" fromLane="0" toLane="0" keepClear="0"/>
    <connection from="6522" to="10339" fromLane="0" toLane="1"/>
    <connection from="6522" to="6489" fromLane="0" toLane="0" keepClear="0"/>
    <connection from="6522" to="10339" fromLane="0" toLane="2"/>
    <connection from="6522" to="6489" fromLane="1" toLane="2"/>
    <connection from="6522" to="10339" fromLane="1" toLane="0"/>
    <connection from="6522" to="6489" fromLane="1" toLane="0" keepClear="0"/>
    <connection from="6522" to="6489" fromLane="1" toLane="1" keepClear="0"/>
    <connection from="6522" to="10339" fromLane="1" toLane="1" keepClear="0"/>
    <connection from="6522" to="10339" fromLane="1" toLane="2" keepClear="0"/>
    <connection from="6522" to="10339" fromLane="2" toLane="2" keepClear="0"/>
    <connection from="6522" to="6489" fromLane="2" toLane="0" keepClear="0"/>
    <connection from="6522" to="6489" fromLane="2" toLane="1" keepClear="0"/>
    <connection from="6522" to="6489" fromLane="2" toLane="2" keepClear="0"/>
    <connection from="6522" to="10339" fromLane="2" toLane="1"/>
    <connection from="6522" to="6489" fromLane="3" toLane="0"/>
    <connection from="6522" to="10339" fromLane="3" toLane="2"/>
    <connection from="6522" to="6489" fromLane="3" toLane="1" keepClear="0"/>
    <connection from="6522" to="6489" fromLane="3" toLane="2" keepClear="0"/>

    <connection from="6526" to="10391" fromLane="0" toLane="0" pass="1"/>
    <connection from="6526" to="10391" fromLane="0" toLane="1"/>
    <connection from="6526" to="10389" fromLane="0" toLane="0"/>
    <connection from="6526" to="10391" fromLane="1" toLane="1" keepClear="0"/>
    <connection from="6526" to="10389" fromLane="1" toLane="0" pass="1"/>
    <connection from="6526" to="10389" fromLane="2" toLane="1"/>
    <connection from="6526" to="10389" fromLane="2" toLane="2" pass="1"/>
    <connection from="6526" to="10389" fromLane="3" toLane="2"/>
    <connection from="6526" to="10389" fromLane="3" toLane="3" pass="1"/>

    <connection from="6539" to="6116" fromLane="0" toLane="0" pass="1"/>
    <connection from="6539" to="6116" fromLane="0" toLane="1"/>
    <connection from="6539" to="6116" fromLane="1" toLane="1"/>
    <connection from="6539" to="6116" fromLane="1" toLane="2"/>
    <connection from="6539" to="6123" fromLane="1" toLane="1"/>

    <connection from="7523" to="7537" fromLane="0" toLane="0"/>

    <connection from="7531" to="7533" fromLane="0" toLane="0"/>

    <connection from="7532" to="7533" fromLane="0" toLane="0"/>
    <connection from="7532" to="7533" fromLane="1" toLane="1"/>

    <connection from="7534" to="6659" fromLane="0" toLane="0"/>

    <connection from="7535" to="6123" fromLane="0" toLane="0"/>
    <connection from="7535" to="6123" fromLane="1" toLane="1" pass="1"/>
    <connection from="7535" to="7532" fromLane="1" toLane="1"/>

    <connection from="7536" to="6515" fromLane="0" toLane="0"/>

    <connection from="7537" to="7538" fromLane="0" toLane="0"/>
    <connection from="7537" to="7538" fromLane="1" toLane="1"/>
    <connection from="7537" to="7540" fromLane="1" toLane="0"/>
    <connection from="7537" to="7540" fromLane="1" toLane="1"/>

    <connection from="7538" to="5323" fromLane="0" toLane="0"/>
    <connection from="7538" to="5323" fromLane="1" toLane="1"/>

    <connection from="7539" to="6511" fromLane="0" toLane="0" pass="1"/>
    <connection from="7539" to="6511" fromLane="1" toLane="1" pass="1"/>
    <connection from="7539" to="6511" fromLane="2" toLane="2" pass="1"/>

    <connection from="7540" to="7539" fromLane="0" toLane="0"/>
    <connection from="7540" to="7539" fromLane="1" toLane="0"/>
    <connection from="7540" to="7539" fromLane="1" toLane="1"/>
    <connection from="7540" to="7539" fromLane="1" toLane="2"/>

    <connection from="7542" to="7558" fromLane="0" toLane="0" pass="1"/>
    <connection from="7542" to="7547" fromLane="0" toLane="0" pass="1"/>
    <connection from="7542" to="7547" fromLane="1" toLane="1" pass="1"/>
    <connection from="7542" to="7547" fromLane="1" toLane="2" pass="1"/>

    <connection from="7543" to="7668" fromLane="0" toLane="0" keepClear="0"/>
    <connection from="7543" to="7670" fromLane="0" toLane="0" keepClear="0"/>
    <connection from="7543" to="7668" fromLane="1" toLane="0" keepClear="0"/>
    <connection from="7543" to="7670" fromLane="1" toLane="1" keepClear="0"/>
    <connection from="7543" to="7670" fromLane="2" toLane="1"/>
    <connection from="7543" to="7670" fromLane="2" toLane="2" keepClear="0"/>

    <connection from="7544" to="7672" fromLane="0" toLane="0" keepClear="0"/>
    <connection from="7544" to="7671" fromLane="0" toLane="0" keepClear="0"/>
    <connection from="7544" to="7672" fromLane="1" toLane="0" keepClear="0"/>
    <connection from="7544" to="7671" fromLane="1" toLane="0" keepClear="0"/>
    <connection from="7544" to="7671" fromLane="1" toLane="1" keepClear="0"/>
    <connection from="7544" to="7672" fromLane="2" toLane="0" keepClear="0"/>
    <connection from="7544" to="7671" fromLane="2" toLane="0" keepClear="0"/>
    <connection from="7544" to="7671" fromLane="2" toLane="1" keepClear="0"/>
    <connection from="7544" to="7671" fromLane="2" toLane="2" keepClear="0"/>

    <connection from="7545" to="6526" fromLane="0" toLane="0" pass="1"/>
    <connection from="7545" to="6526" fromLane="0" toLane="1" pass="1"/>
    <connection from="7545" to="6526" fromLane="1" toLane="2" pass="1"/>
    <connection from="7545" to="6526" fromLane="1" toLane="3"/>
    <connection from="7545" to="6526" fromLane="2" toLane="2"/>
    <connection from="7545" to="6526" fromLane="2" toLane="3" pass="1"/>

    <connection from="7546" to="6511" fromLane="0" toLane="0"/>

    <connection from="7547" to="7548" fromLane="0" toLane="0" pass="1" keepClear="0"/>
    <connection from="7547" to="7548" fromLane="1" toLane="1" pass="1" keepClear="0"/>
    <connection from="7547" to="7548" fromLane="2" toLane="2" pass="1" keepClear="0"/>

    <connection from="7548" to="7557" fromLane="0" toLane="0" keepClear="0"/>
    <connection from="7548" to="7549" fromLane="0" toLane="0" keepClear="0"/>
    <connection from="7548" to="7557" fromLane="1" toLane="1" keepClear="0"/>
    <connection from="7548" to="7557" fromLane="1" toLane="2" keepClear="0"/>
    <connection from="7548" to="7549" fromLane="1" toLane="0" keepClear="0"/>
    <connection from="7548" to="7549" fromLane="1" toLane="1" keepClear="0"/>
    <connection from="7548" to="7557" fromLane="2" toLane="2" keepClear="0"/>
    <connection from="7548" to="7549" fromLane="2" toLane="0" keepClear="0"/>
    <connection from="7548" to="7549" fromLane="2" toLane="1" keepClear="0"/>
    <connection from="7548" to="7549" fromLane="2" toLane="2" keepClear="0"/>

    <connection from="7549" to="7550" fromLane="0" toLane="0"/>
    <connection from="7549" to="7550" fromLane="1" toLane="1"/>
    <connection from="7549" to="7550" fromLane="2" toLane="2"/>

    <connection from="7550" to="7559" fromLane="0" toLane="0"/>
    <connection from="7550" to="7552" fromLane="0" toLane="0"/>
    <connection from="7550" to="7552" fromLane="0" toLane="1"/>
    <connection from="7550" to="7559" fromLane="1" toLane="1"/>
    <connection from="7550" to="7552" fromLane="1" toLane="0"/>
    <connection from="7550" to="7552" fromLane="1" toLane="1"/>
    <connection from="7550" to="7552" fromLane="1" toLane="2"/>
    <connection from="7550" to="7552" fromLane="2" toLane="1"/>
    <connection from="7550" to="7552" fromLane="2" toLane="2"/>

    <connection from="7552" to="7553" fromLane="0" toLane="0"/>
    <connection from="7552" to="7553" fromLane="0" toLane="1"/>
    <connection from="7552" to="7553" fromLane="1" toLane="0"/>
    <connection from="7552" to="7553" fromLane="1" toLane="1"/>
    <connection from="7552" to="7553" fromLane="1" toLane="2"/>
    <connection from="7552" to="7553" fromLane="2" toLane="1"/>
    <connection from="7552" to="7553" fromLane="2" toLane="2"/>

    <connection from="7553" to="7564" fromLane="0" toLane="0"/>
    <connection from="7553" to="7564" fromLane="0" toLane="1"/>
    <connection from="7553" to="7554" fromLane="0" toLane="0"/>
    <connection from="7553" to="7564" fromLane="1" toLane="0"/>
    <connection from="7553" to="7564" fromLane="1" toLane="1"/>
    <connection from="7553" to="7554" fromLane="1" toLane="0"/>
    <connection from="7553" to="7554" fromLane="1" toLane="1"/>
    <connection from="7553" to="7564" fromLane="2" toLane="2"/>
    <connection from="7553" to="7554" fromLane="2" toLane="1"/>
    <connection from="7553" to="7554" fromLane="2" toLane="2"/>

    <connection from="7554" to="7555" fromLane="0" toLane="0"/>
    <connection from="7554" to="7555" fromLane="1" toLane="1"/>
    <connection from="7554" to="7555" fromLane="2" toLane="2"/>

    <connection from="7555" to="7561" fromLane="0" toLane="0"/>
    <connection from="7555" to="7556" fromLane="0" toLane="0"/>
    <connection from="7555" to="7561" fromLane="1" toLane="1"/>
    <connection from="7555" to="7556" fromLane="1" toLane="0"/>
    <connection from="7555" to="7556" fromLane="1" toLane="1"/>
    <connection from="7555" to="7556" fromLane="1" toLane="2"/>
    <connection from="7555" to="7556" fromLane="2" toLane="1"/>
    <connection from="7555" to="7556" fromLane="2" toLane="2"/>

    <connection from="7556" to="7548" fromLane="0" toLane="0" keepClear="0"/>
    <connection from="7556" to="7548" fromLane="1" toLane="1" keepClear="0"/>
    <connection from="7556" to="7548" fromLane="2" toLane="2" keepClear="0"/>

    <connection from="7557" to="7568" fromLane="0" toLane="0" pass="1"/>
    <connection from="7557" to="7578" fromLane="0" toLane="0" pass="1"/>
    <connection from="7557" to="7578" fromLane="1" toLane="1"/>
    <connection from="7557" to="7578" fromLane="1" toLane="2" pass="1"/>
    <connection from="7557" to="7578" fromLane="2" toLane="2"/>
    <connection from="7557" to="7578" fromLane="2" toLane="3" pass="1"/>

    <connection from="7558" to="7568" fromLane="0" toLane="0"/>
    <connection from="7558" to="7578" fromLane="0" toLane="0"/>

    <connection from="7559" to="6526" fromLane="0" toLane="0"/>
    <connection from="7559" to="6526" fromLane="1" toLane="0" keepClear="0"/>
    <connection from="7559" to="6526" fromLane="1" toLane="1" keepClear="0"/>

    <connection from="7560" to="7555" fromLane="0" toLane="0"/>
    <connection from="7560" to="7555" fromLane="1" toLane="1"/>
    <connection from="7560" to="7555" fromLane="2" toLane="2"/>

    <connection from="7561" to="7796" fromLane="0" toLane="0" keepClear="0"/>
    <connection from="7561" to="7796" fromLane="1" toLane="1" keepClear="0"/>

    <connection from="7562" to="7553" fromLane="0" toLane="0"/>
    <connection from="7562" to="7553" fromLane="1" toLane="1"/>
    <connection from="7562" to="7553" fromLane="2" toLane="2"/>

    <connection from="7563" to="7543" fromLane="0" toLane="0" keepClear="0"/>
    <connection from="7563" to="7543" fromLane="0" toLane="1"/>

    <connection from="7564" to="7543" fromLane="0" toLane="0" keepClear="0"/>
    <connection from="7564" to="7543" fromLane="0" toLane="1"/>
    <connection from="7564" to="7543" fromLane="1" toLane="0"/>
    <connection from="7564" to="7543" fromLane="1" toLane="1" keepClear="0"/>
    <connection from="7564" to="7543" fromLane="1" toLane="2"/>
    <connection from="7564" to="7543" fromLane="2" toLane="1"/>
    <connection from="7564" to="7543" fromLane="2" toLane="2" keepClear="0"/>

    <connection from="7565" to="7796" fromLane="0" toLane="0" keepClear="0"/>

    <connection from="7566" to="-6487" fromLane="0" toLane="0"/>

    <connection from="7568" to="7571" fromLane="0" toLane="0" keepClear="0"/>

    <connection from="7569" to="7570" fromLane="0" toLane="0"/>

    <connection from="7570" to="7576" fromLane="0" toLane="0" keepClear="0"/>
    <connection from="7570" to="7585" fromLane="0" toLane="0" keepClear="0"/>

    <connection from="7571" to="7572" fromLane="0" toLane="0"/>
    <connection from="7571" to="7569" fromLane="0" toLane="0"/>

    <connection from="7572" to="-7573" fromLane="0" toLane="0"/>

    <connection from="7574" to="7550" fromLane="0" toLane="0"/>
    <connection from="7574" to="7550" fromLane="0" toLane="1"/>
    <connection from="7574" to="7550" fromLane="1" toLane="1"/>
    <connection from="7574" to="7550" fromLane="1" toLane="2"/>
    <connection from="7574" to="7550" fromLane="2" toLane="1"/>
    <connection from="7574" to="7550" fromLane="2" toLane="2"/>

    <connection from="7575" to="7570" fromLane="0" toLane="0"/>

    <connection from="7576" to="7577" fromLane="0" toLane="0"/>

    <connection from="7577" to="7589" fromLane="0" toLane="0"/>
    <connection from="7577" to="7587" fromLane="0" toLane="0"/>

    <connection from="7578" to="7584" fromLane="0" toLane="0" keepClear="0"/>
    <connection from="7578" to="7579" fromLane="0" toLane="0" keepClear="0"/>
    <connection from="7578" to="7579" fromLane="1" toLane="1" keepClear="0"/>
    <connection from="7578" to="7579" fromLane="2" toLane="2" keepClear="0"/>
    <connection from="7578" to="7579" fromLane="3" toLane="3" keepClear="0"/>

    <connection from="7579" to="7580" fromLane="0" toLane="0" pass="1" keepClear="0"/>
    <connection from="7579" to="7580" fromLane="1" toLane="1" pass="1" keepClear="0"/>
    <connection from="7579" to="7580" fromLane="2" toLane="2" pass="1" keepClear="0"/>
    <connection from="7579" to="7580" fromLane="3" toLane="3" pass="1" keepClear="0"/>

    <connection from="7580" to="7586" fromLane="0" toLane="0"/>
    <connection from="7580" to="7581" fromLane="0" toLane="0" pass="1"/>
    <connection from="7580" to="7581" fromLane="0" toLane="1" pass="1"/>
    <connection from="7580" to="7581" fromLane="1" toLane="0"/>
    <connection from="7580" to="7581" fromLane="1" toLane="3" pass="1"/>