<?xml version="1.0" encoding="UTF-8"?>

<!-- generated on Wed 28 Nov 2018 02:50:22 PM +03 by Netedit Version 0.32.0
<?xml version="1.0" encoding="UTF-8"?>

<configuration xmlns:xsi="http://www.w3.org/2001/XMLSchema-instance" xsi:noNamespaceSchemaLocation="http://sumo.dlr.de/xsd/netconvertConfiguration.xsd">

    <input>
        <sumo-net-file value="/home/gvantini/TLRL/gharrafa.net.xml"/>
    </input>

    <output>
        <output-file value="/home/gvantini/TLRL/gharrafa.net.xml"/>
        <plain-output-prefix value="/home/gvantini/TLRL/gharrafa"/>
    </output>

    <processing>
        <no-turnarounds value="true"/>
        <offset.disable-normalization value="true"/>
        <lefthand value="false"/>
        <junctions.corner-detail value="0"/>
        <rectangular-lane-cut value="false"/>
        <walkingareas value="false"/>
    </processing>

    <visualisation>
        <registry-viewport value="true"/>
    </visualisation>

</configuration>
-->

<edges version="0.27" xmlns:xsi="http://www.w3.org/2001/XMLSchema-instance" xsi:noNamespaceSchemaLocation="http://sumo.dlr.de/xsd/edges_file.xsd">
    <edge id="-1184" from="1680" to="1677" priority="54" numLanes="1" speed="13.88"/>
    <edge id="-11866" from="10454" to="10453" priority="54" numLanes="1" speed="13.88" shape="740.93,1677.94 718.56,1719.95 658.67,1803.45"/>
    <edge id="-11998" from="10453" to="10452" priority="54" numLanes="1" speed="13.88"/>
    <edge id="-12387" from="10510" to="10451" priority="55" numLanes="1" speed="11.11"/>
    <edge id="-12388" from="10510" to="10455" priority="55" numLanes="1" speed="11.11"/>
    <edge id="-1286" from="1733" to="1723" priority="55" numLanes="1" speed="11.11"/>
    <edge id="-1317" from="1680" to="6280" priority="55" numLanes="1" speed="11.11" shape="1980.37,1797.61 1927.39,1911.81 1890.06,1992.86 1853.36,2072.30 1837.76,2105.94"/>
    <edge id="-2399" from="2184" to="2168" priority="55" numLanes="1" speed="11.11" shape="978.22,1372.09 988.16,1324.92 1002.17,1275.14 1018.21,1243.79 1020.84,1240.93 1066.48,1164.64"/>
    <edge id="-2436" from="2210" to="2227" priority="54" numLanes="1" speed="13.88" shape="859.35,963.58 837.66,986.42 776.17,1049.35 713.33,1114.07 624.27,1206.07"/>
    <edge id="-2547" from="2168" to="2184" priority="55" numLanes="1" speed="11.11" shape="1066.48,1164.64 1020.84,1240.93 1018.21,1243.79 1002.17,1275.14 988.16,1324.92 978.22,1372.09"/>
    <edge id="-6208" from="1722" to="1677" priority="54" numLanes="1" speed="13.88" shape="2120.15,1990.18 2149.94,1916.99 2165.81,1880.07"/>
    <edge id="-6487" from="6320" to="6515" priority="73" numLanes="1" speed="13.88" shape="1100.86,1942.41 1065.86,1980.23 1062.11,1984.30 1055.71,1993.58 1050.08,2001.73 1042.00,2013.47 1035.41,2024.86 1029.25,2035.64 1019.07,2053.61 1000.12,2097.57 984.89,2127.22 934.60,2230.54 890.80,2324.66 838.14,2438.70 779.26,2566.00"/>
    <edge id="-6488" from="6280" to="1680" priority="55" numLanes="1" speed="11.11" shape="1837.76,2105.94 1853.36,2072.30 1890.06,1992.86 1927.39,1911.81 1980.37,1797.61"/>
    <edge id="-7573" from="7756" to="1689" priority="54" numLanes="1" speed="13.88" shape="1506.13,1972.23 1508.14,1968.59 1540.35,1898.98 1566.69,1842.20 1601.47,1767.29 1623.03,1720.37"/>
    <edge id="-7638" from="7780" to="7736" priority="55" numLanes="1" speed="11.11"/>
    <edge id="-7642" from="7786" to="2386" priority="55" numLanes="1" speed="11.11"/>
    <edge id="-7643" from="7787" to="7786" priority="55" numLanes="1" speed="11.11"/>
    <edge id="-7644" from="7787" to="2168" priority="55" numLanes="1" speed="11.11"/>
    <edge id="-7749" from="7828" to="2210" priority="55" numLanes="1" speed="11.11" shape="888.59,753.06 878.73,754.99 872.00,756.63 865.17,758.27 858.66,760.47 852.56,763.46 847.43,767.82 845.83,769.59 844.16,772.53 843.06,775.38 842.21,778.39 841.49,782.62 841.11,785.86 840.95,790.31 841.36,795.17 841.26,797.22 840.37,800.39 839.17,803.13 837.49,806.12 844.04,888.02 846.38,918.86 847.06,923.51 844.97,937.97 845.48,941.94 846.68,945.38 848.40,949.00 851.66,953.49 853.55,955.55 859.35,963.58"/>
    <edge id="-7769" from="7827" to="2386" priority="55" numLanes="1" speed="11.11"/>
    <edge id="-7770" from="7232" to="2410_" priority="54" numLanes="1" speed="13.88"/>
    <edge id="-7774" from="7829" to="7828" priority="55" numLanes="1" speed="11.11"/>
    <edge id="-8102" from="8007" to="2410_" priority="54" numLanes="1" speed="13.88" shape="895.00,926.62 902.58,918.78 966.10,853.26"/>
    <edge id="-8103" from="8007" to="2210" priority="54" numLanes="1" speed="13.88"/>
    <edge id="10324" from="6274" to="7749" priority="73" numLanes="1" speed="13.88" shape="1517.97,2045.29 1486.71,2030.27 1481.20,2027.45 1477.72,2025.22 1474.69,2021.93 1471.98,2018.73 1469.45,2016.32 1466.68,2013.84 1461.50,2010.22 1455.96,2006.89 1439.64,1997.46 1400.55,1974.67 1358.61,1950.30" spreadType="center"/>
    <edge id="10339" from="6287" to="7745" priority="64" numLanes="3" speed="22.22" shape="892.33,2188.73 906.52,2139.05 959.52,2005.33" spreadType="center"/>
    <edge id="10342.0" from="9152" to="gneJ0" priority="85" numLanes="2" speed="13.88" spreadType="center"/>
    <edge id="10342.32" from="gneJ0" to="cluster_6272_6273_6278_6279_7759_7762_7763_9153" priority="85" numLanes="2" speed="13.88" shape="1922.47,2459.57 2014.42,2203.41" spreadType="center"/>
    <edge id="10389" from="7079" to="9174" priority="11" numLanes="4" speed="27.77" shape="781.85,2485.10 750.75,2555.18 721.48,2620.94 699.35,2668.77 645.70,2784.72 588.39,2907.42 542.95,3004.70 504.05,3095.32" spreadType="center"/>
    <edge id="10391" from="7079" to="9179" priority="67" numLanes="2" speed="22.22" shape="781.85,2485.10 762.45,2558.85 716.19,2661.75 643.78,2819.44 633.03,2843.96" spreadType="center"/>
    <edge id="10392" from="9179" to="9176" priority="68" numLanes="2" speed="16.66" shape="633.03,2843.96 624.36,2859.51 615.42,2879.93 610.54,2892.82 610.12,2893.92 609.37,2895.99 608.97,2897.35 608.69,2898.73 608.52,2900.12 608.43,2901.51 608.43,2903.01 608.55,2904.38 608.75,2905.77 609.06,2907.17 609.47,2908.60 609.95,2909.83 610.42,2910.88 610.70,2911.45 611.19,2912.36 611.98,2913.59 612.86,2914.79 613.79,2915.88 614.80,2916.91 615.86,2917.83 616.99,2918.70 618.05,2919.40 619.35,2920.14 620.45,2920.68 620.82,2920.83 622.08,2921.32 623.37,2921.72 624.68,2922.04 626.25,2922.30 627.56,2922.41 629.01,2922.45 630.48,2922.38 631.85,2922.22 633.27,2921.95 634.67,2921.58 636.04,2921.11 637.29,2920.58 638.60,2919.92 639.76,2919.22 640.51,2918.71 641.02,2918.34 642.11,2917.47 643.18,2916.48 643.90,2915.69 644.98,2914.42 645.82,2913.20 646.56,2911.99 647.20,2910.72 647.75,2909.41 648.99,2905.94 653.19,2893.99 658.65,2878.58 669.56,2839.25 674.19,2823.48 681.29,2799.54 699.36,2742.08 711.52,2710.36 717.57,2697.40 726.07,2681.65 732.40,2671.39 740.90,2658.59 743.14,2654.49 745.07,2650.27 746.71,2645.75 748.10,2641.05 749.01,2636.65 749.68,2631.83 749.75,2627.97 749.63,2624.67" spreadType="center"/>
    <edge id="10393" from="6876" to="9178" priority="77" numLanes="2" speed="8.33" shape="780.87,2605.56 781.76,2606.22 782.53,2606.88 783.78,2608.13" spreadType="center"/>
    <edge id="10394" from="9178" to="6392" priority="44" numLanes="3" speed="22.22" shape="783.78,2608.13 785.14,2608.68 787.18,2609.54 789.45,2610.54 792.08,2611.78 795.31,2613.49 797.51,2614.53 800.79,2615.89 803.72,2616.93 807.04,2617.86 810.66,2618.84 813.94,2619.30 817.41,2619.73 843.64,2625.02 847.30,2626.11 854.09,2628.00 868.03,2632.41 889.49,2640.08 955.78,2663.39 1204.40,2751.25" spreadType="center"/>
    <edge id="10410" from="9150" to="9187" priority="53" numLanes="2" speed="13.88" spreadType="center"/>
    <edge id="10423" from="gneJ0" to="9193" priority="53" numLanes="2" speed="13.88" spreadType="center"/>
    <edge id="10424" from="9193" to="9149" priority="53" numLanes="2" speed="13.88" spreadType="center"/>
    <edge id="10464" from="9177" to="6515" priority="73" numLanes="1" speed="13.88" shape="754.89,2607.81 759.82,2601.37 763.14,2597.04 765.32,2593.60 767.31,2589.87 768.58,2586.80 769.55,2583.96 770.28,2581.67 770.83,2578.42 774.39,2571.73 779.26,2566.00" spreadType="center"/>
    <edge id="10466" from="9176" to="9177" priority="77" numLanes="2" speed="8.33" shape="749.63,2624.67 749.50,2623.40 749.39,2622.05 749.35,2620.00 749.78,2617.57 750.60,2614.60 751.33,2612.95 752.26,2611.13 753.50,2609.28 754.46,2608.24 754.89,2607.81" spreadType="center"/>
    <edge id="10467" from="9177" to="6876" priority="77" numLanes="2" speed="8.33" shape="754.89,2607.81 757.20,2605.72 759.25,2604.40 761.84,2603.08 764.38,2602.36 767.39,2601.88 769.80,2601.77 772.52,2601.95 774.81,2602.56 777.22,2603.47 779.51,2604.55 780.87,2605.56" spreadType="center"/>
    <edge id="10468" from="9178" to="6875" priority="77" numLanes="2" speed="8.33" shape="783.78,2608.13 784.34,2608.77 784.84,2609.39 785.27,2609.97 785.65,2610.50 785.98,2611.02 786.40,2611.72 786.82,2612.50 787.24,2613.35 787.52,2613.99 787.77,2614.65 787.98,2615.22 788.20,2615.94 788.42,2616.73 788.55,2617.28 788.68,2617.88 788.74,2618.28 788.82,2618.77 788.89,2619.39 788.95,2620.06 789.00,2620.73 789.01,2621.56 788.99,2622.61 788.88,2623.70 788.70,2624.98 788.39,2626.45 788.04,2627.75 787.56,2628.97 786.88,2630.47 786.22,2631.73 785.12,2633.33 783.89,2634.87 782.87,2635.91 781.69,2636.96 780.42,2637.91" spreadType="center"/>
    <edge id="10469" from="6875" to="9176" priority="77" numLanes="2" speed="8.33" shape="780.42,2637.91 779.74,2638.34 779.11,2638.74 778.35,2639.16 777.47,2639.58 776.51,2639.98 775.61,2640.33 774.94,2640.53 774.33,2640.71 771.66,2641.26 770.55,2641.30 769.46,2641.38 768.15,2641.35 766.57,2641.17 765.34,2641.00 763.29,2640.53 761.87,2639.95 760.57,2639.39 759.28,2638.71 758.28,2638.11 757.35,2637.46 756.53,2636.79 755.65,2636.05 754.86,2635.23 753.96,2634.26 753.22,2633.28 752.48,2632.19 751.83,2631.15 751.28,2630.05 750.74,2628.84 750.24,2627.40 749.89,2626.07 749.63,2624.67" spreadType="center"/>
    <edge id="10471" from="9214" to="6875" priority="44" numLanes="3" speed="22.22" shape="1196.00,2761.00 922.41,2665.79 859.55,2645.09 844.46,2640.20 828.13,2635.76 822.31,2634.54 815.04,2632.94 813.65,2632.67 811.90,2632.38 810.30,2632.19 808.25,2631.99 806.17,2631.91 803.82,2631.94 801.51,2632.05 798.64,2632.37 797.09,2632.63 796.24,2632.78 794.76,2633.10 793.22,2633.47 791.77,2633.88 790.47,2634.29 780.42,2637.91" spreadType="center"/>
    <edge id="1153" from="1689" to="7756" priority="54" numLanes="1" speed="13.88" shape="1623.03,1720.37 1601.47,1767.29 1566.69,1842.20 1540.35,1898.98 1508.14,1968.59 1506.13,1972.23"/>
    <edge id="11548" from="10427" to="10399" priority="45" numLanes="2" speed="22.22" spreadType="center"/>
    <edge id="11597" from="10396" to="10430" priority="45" numLanes="2" speed="22.22" spreadType="center"/>
    <edge id="11784" from="10451" to="10447" priority="55" numLanes="1" speed="11.11" shape="596.91,1964.68 593.63,1961.65 588.21,1959.69 583.94,1958.22 580.04,1956.93 575.11,1955.28 569.32,1953.63 562.35,1952.02" spreadType="center"/>
    <edge id="11800" from="10444" to="10446" priority="78" numLanes="1" speed="5.55" shape="550.77,1935.98 550.88,1935.59 550.99,1935.21 551.11,1934.83 551.22,1934.44 551.39,1934.10 551.55,1933.75 551.71,1933.41 551.87,1933.06 552.03,1932.71 552.19,1932.37 552.41,1932.06 552.63,1931.75 552.85,1931.43 553.07,1931.12 553.29,1930.81 553.51,1930.50 553.78,1930.23 554.05,1929.96 554.32,1929.69 554.59,1929.42 554.86,1929.15 555.13,1928.88 555.36,1928.71 555.58,1928.53 555.81,1928.36 556.04,1928.19" spreadType="center"/>
    <edge id="1184" from="1677" to="1680" priority="54" numLanes="1" speed="13.88"/>
    <edge id="11840" from="10458" to="10459" priority="78" numLanes="1" speed="5.55" shape="866.97,2085.54 867.34,2085.57 867.71,2085.59 868.09,2085.61 868.46,2085.63 868.84,2085.65 869.21,2085.67 869.57,2085.76 869.94,2085.84 870.30,2085.93 870.67,2086.01 871.03,2086.10 871.40,2086.18 871.74,2086.33 872.09,2086.47 872.43,2086.62 872.78,2086.76 873.12,2086.91 873.47,2087.05 873.78,2087.26 874.10,2087.46 874.41,2087.66 874.73,2087.86 875.04,2088.06 875.36,2088.27 875.63,2088.52 875.91,2088.77 876.18,2089.03 876.46,2089.28 876.73,2089.53 877.01,2089.78 877.24,2090.08 877.47,2090.38 877.70,2090.67 877.93,2090.97 878.15,2091.27 878.38,2091.56 878.56,2091.89 878.73,2092.22 878.91,2092.55 879.08,2092.89 879.26,2093.22 879.43,2093.55 879.55,2093.90 879.67,2094.26 879.78,2094.61 879.90,2094.97 880.01,2095.33 880.13,2095.68 880.18,2096.05 880.24,2096.42 880.29,2096.79 880.34,2097.16 880.40,2097.53 880.45,2097.90 880.44,2098.26 880.44,2098.61 880.43,2098.97 880.42,2099.32 880.41,2099.67 880.40,2100.03 880.34,2100.38 880.27,2100.72 880.21,2101.07 880.14,2101.42 880.08,2101.77 880.01,2102.12 879.93,2102.36 879.84,2102.60 879.75,2102.85 879.66,2103.09 879.48,2103.60 879.38,2103.86 879.29,2104.11 879.12,2104.42 878.95,2104.73 878.78,2105.04 878.60,2105.35 878.43,2105.66 878.26,2105.97 878.04,2106.25 877.82,2106.52 877.60,2106.80 877.38,2107.08 877.16,2107.36 876.94,2107.63" spreadType="center"/>
    <edge id="11866" from="10453" to="10454" priority="54" numLanes="1" speed="13.88" shape="658.67,1803.45 718.56,1719.95 740.93,1677.94"/>
    <edge id="11869" from="10456" to="10458" priority="78" numLanes="1" speed="5.55" shape="854.41,2096.42 854.50,2096.06 854.60,2095.69 854.69,2095.33 854.79,2094.97 854.88,2094.61 854.98,2094.25 855.14,2093.91 855.29,2093.57 855.45,2093.23 855.60,2092.89 855.76,2092.55 855.91,2092.21 856.13,2091.90 856.34,2091.59 856.55,2091.28 856.76,2090.97 856.97,2090.66 857.18,2090.35 857.44,2090.08 857.70,2089.82 857.97,2089.55 858.23,2089.28 858.49,2089.01 858.75,2088.74 859.05,2088.52 859.35,2088.30 859.66,2088.08 859.96,2087.86 860.26,2087.64 860.57,2087.42 860.90,2087.26 861.24,2087.09 861.57,2086.93 861.91,2086.76 862.25,2086.60 862.58,2086.43 862.94,2086.33 863.30,2086.22 863.66,2086.12 864.02,2086.01 864.38,2085.91 864.74,2085.80 865.11,2085.76 865.48,2085.71 865.85,2085.67 866.22,2085.63 866.60,2085.59 866.97,2085.54" spreadType="center"/>
    <edge id="11880" from="10457" to="10456" priority="78" numLanes="1" speed="5.55" shape="854.97,2103.07 854.88,2102.70 854.78,2102.34 854.69,2101.98 854.59,2101.62 854.50,2101.26 854.40,2100.89 854.37,2100.52 854.34,2100.15 854.31,2099.77 854.28,2099.40 854.24,2099.03 854.21,2098.66 854.24,2098.28 854.28,2097.91 854.31,2097.54 854.34,2097.16 854.37,2096.79 854.41,2096.42" spreadType="center"/>
    <edge id="11889" from="10459" to="10457" priority="78" numLanes="1" speed="5.55" shape="876.94,2107.63 876.67,2107.87 876.41,2108.12 876.14,2108.36 875.88,2108.60 875.61,2108.84 875.34,2109.08 875.04,2109.28 874.74,2109.47 874.44,2109.67 874.14,2109.86 873.84,2110.05 873.53,2110.25 873.21,2110.39 872.88,2110.53 872.55,2110.68 872.22,2110.82 871.89,2110.96 871.56,2111.11 871.21,2111.19 870.86,2111.28 870.51,2111.37 870.17,2111.45 869.82,2111.54 869.47,2111.63 869.11,2111.66 868.75,2111.69 868.40,2111.71 868.04,2111.74 867.68,2111.77 867.32,2111.80 866.99,2111.77 866.65,2111.75 866.32,2111.72 865.98,2111.70 865.65,2111.67 865.31,2111.64 864.99,2111.57 864.66,2111.49 864.33,2111.41 864.01,2111.33 863.68,2111.26 863.36,2111.18 863.04,2111.05 862.73,2110.93 862.42,2110.80 862.11,2110.68 861.80,2110.55 861.49,2110.42 861.20,2110.25 860.91,2110.08 860.63,2109.91 860.34,2109.74 860.05,2109.56 859.76,2109.39 859.50,2109.18 859.24,2108.96 858.99,2108.75 858.73,2108.53 858.47,2108.32 858.21,2108.11 857.99,2107.85 857.77,2107.60 857.54,2107.35 857.32,2107.10 857.10,2106.85 856.88,2106.60 856.69,2106.32 856.51,2106.03 856.33,2105.75 856.15,2105.47 855.97,2105.19 855.79,2104.91 855.65,2104.60 855.51,2104.29 855.38,2103.99 855.24,2103.68 855.11,2103.37 854.97,2103.07" spreadType="center"/>
    <edge id="11902" from="10450" to="10451" priority="55" numLanes="1" speed="11.11" shape="576.47,1941.25 577.69,1943.89 578.90,1946.45 580.73,1949.20 583.16,1952.31 585.78,1955.12 588.27,1957.44 591.19,1959.57 592.71,1960.61 598.27,1961.69" spreadType="center"/>
    <edge id="11923" from="10447" to="10444" priority="78" numLanes="1" speed="5.55" shape="562.35,1952.02 562.08,1951.98 561.80,1951.95 561.53,1951.91 561.25,1951.87 560.88,1951.77 560.51,1951.67 560.14,1951.57 559.78,1951.47 559.41,1951.37 559.04,1951.28 558.70,1951.11 558.35,1950.95 558.00,1950.79 557.66,1950.63 557.31,1950.47 556.97,1950.31 556.66,1950.09 556.34,1949.87 556.03,1949.65 555.72,1949.43 555.41,1949.21 555.10,1948.99 554.83,1948.72 554.56,1948.45 554.29,1948.18 554.02,1947.91 553.75,1947.64 553.48,1947.37 553.26,1947.06 553.05,1946.74 552.83,1946.43 552.61,1946.12 552.39,1945.81 552.17,1945.49 552.01,1945.15 551.85,1944.80 551.69,1944.46 551.53,1944.11 551.37,1943.76 551.21,1943.42 551.11,1943.05 551.01,1942.68 550.91,1942.31 550.82,1941.94 550.72,1941.58 550.62,1941.21 550.59,1940.83 550.56,1940.45 550.52,1940.07 550.49,1939.69 550.46,1939.31 550.43,1938.93 550.46,1938.55 550.49,1938.17 550.53,1937.79 550.56,1937.41 550.59,1937.03 550.63,1936.65 550.70,1936.31 550.77,1935.98" spreadType="center"/>
    <edge id="11998" from="10452" to="10453" priority="54" numLanes="1" speed="13.88"/>
    <edge id="12004" from="10439" to="10444" priority="54" numLanes="1" speed="13.88" shape="503.68,2039.63 530.15,1987.50 535.34,1972.14 542.36,1955.64 545.65,1943.45 550.77,1935.98" spreadType="center"/>
    <edge id="12020" from="10446" to="10452" priority="54" numLanes="1" speed="13.88" shape="556.04,1928.19 571.91,1909.98 591.70,1891.13 625.74,1851.14" spreadType="center"/>
    <edge id="12051" from="10452" to="10449" priority="54" numLanes="1" speed="13.88" shape="628.34,1853.15 574.99,1932.51" spreadType="center"/>
    <edge id="12093" from="10447" to="10439" priority="54" numLanes="1" speed="13.88" shape="562.35,1952.02 506.56,2041.24" spreadType="center"/>
    <edge id="12108" from="10455" to="10458" priority="55" numLanes="1" speed="11.11" shape="839.71,2078.58 840.15,2078.74 840.60,2078.91 841.04,2079.07 841.49,2079.23 841.94,2079.40 842.38,2079.56 842.83,2079.72 843.27,2079.89 843.72,2080.05 844.17,2080.21 844.61,2080.37 845.06,2080.54 845.50,2080.70 845.95,2080.86 846.39,2081.03 846.84,2081.19 847.29,2081.35 847.73,2081.52 848.18,2081.68 848.64,2081.80 849.09,2081.93 849.55,2082.05 850.01,2082.17 850.47,2082.30 850.93,2082.42 851.38,2082.55 851.84,2082.67 852.30,2082.79 852.76,2082.92 853.22,2083.04 853.68,2083.17 854.13,2083.29 854.59,2083.42 855.05,2083.54 855.51,2083.66 855.97,2083.79 856.43,2083.91 856.88,2084.04 857.36,2084.11 857.84,2084.18 858.32,2084.25 858.80,2084.32 859.28,2084.39 859.76,2084.47 860.24,2084.54 860.72,2084.61 861.20,2084.68 861.69,2084.75 862.17,2084.83 862.65,2084.90 863.13,2084.97 863.61,2085.04 864.09,2085.11 864.57,2085.19 865.05,2085.26 865.53,2085.33 866.01,2085.40 866.49,2085.47 866.97,2085.54" spreadType="center"/>
    <edge id="12130" from="10449" to="10450" priority="78" numLanes="1" speed="5.55" shape="574.99,1932.51 575.14,1932.84 575.29,1933.17 575.44,1933.50 575.59,1933.82 575.74,1934.15 575.89,1934.48 575.99,1934.85 576.08,1935.22 576.18,1935.59 576.28,1935.95 576.38,1936.32 576.48,1936.69 576.51,1937.07 576.54,1937.45 576.58,1937.83 576.61,1938.21 576.64,1938.59 576.67,1938.97 576.64,1939.35 576.61,1939.73 576.57,1940.11 576.54,1940.49 576.50,1940.87 576.47,1941.25" spreadType="center"/>
    <edge id="12203" from="10450" to="10447" priority="78" numLanes="1" speed="5.55" shape="576.47,1941.25 576.37,1941.62 576.27,1941.99 576.17,1942.35 576.07,1942.72 575.97,1943.09 575.87,1943.46 575.71,1943.80 575.55,1944.15 575.39,1944.49 575.23,1944.84 575.07,1945.18 574.90,1945.53 574.68,1945.84 574.47,1946.15 574.25,1946.47 574.03,1946.78 573.81,1947.09 573.59,1947.40 573.32,1947.67 573.05,1947.94 572.78,1948.21 572.51,1948.48 572.24,1948.75 571.97,1949.02 571.57,1949.29 571.18,1949.57 570.78,1949.85 570.39,1950.12 570.09,1950.33 569.75,1950.49 569.40,1950.65 569.06,1950.81 568.71,1950.97 568.36,1951.13 568.02,1951.29 567.65,1951.39 567.28,1951.49 566.91,1951.58 566.54,1951.68 566.18,1951.78 565.81,1951.88 565.43,1951.91 565.05,1951.94 564.67,1951.98 564.29,1952.01 563.91,1952.04 562.35,1952.02" spreadType="center"/>
    <edge id="12262" from="10456" to="10455" priority="55" numLanes="1" speed="11.11" shape="854.41,2096.42 854.10,2096.09 853.79,2095.77 853.48,2095.44 853.18,2095.11 852.87,2094.78 852.56,2094.46 852.25,2094.13 852.03,2093.73 851.81,2093.33 851.58,2092.93 851.36,2092.53 851.13,2092.14 850.91,2091.74 850.69,2091.34 850.46,2090.94 850.24,2090.54 850.01,2090.14 849.79,2089.74 849.52,2089.37 849.26,2089.00 848.99,2088.63 848.72,2088.25 848.45,2087.88 848.19,2087.51 847.92,2087.14 847.65,2086.77 847.39,2086.40 847.12,2086.02 846.85,2085.65 846.55,2085.31 846.24,2084.97 845.93,2084.63 845.62,2084.29 845.32,2083.95 845.01,2083.62 844.70,2083.28 844.40,2082.94 844.09,2082.60 843.78,2082.26 843.48,2081.92 843.13,2081.61 842.79,2081.31 842.45,2081.01 842.11,2080.70 841.76,2080.40 841.42,2080.10 841.08,2079.79 840.74,2079.49 840.39,2079.19 840.05,2078.88 839.71,2078.58" spreadType="center"/>
    <edge id="12283" from="10446" to="10449" priority="78" numLanes="1" speed="5.55" shape="556.04,1928.19 556.28,1928.03 556.52,1927.88 556.76,1927.73 557.01,1927.57 557.35,1927.41 557.70,1927.25 558.04,1927.09 558.39,1926.93 558.73,1926.77 559.08,1926.61 559.45,1926.51 559.82,1926.41 560.19,1926.32 560.55,1926.22 560.92,1926.12 561.29,1926.02 561.67,1925.99 562.05,1925.96 562.43,1925.92 562.81,1925.89 563.19,1925.86 563.57,1925.83 563.95,1925.86 564.33,1925.89 564.71,1925.93 565.09,1925.96 565.47,1926.00 565.85,1926.03 566.22,1926.13 566.59,1926.23 566.95,1926.33 567.32,1926.43 567.69,1926.53 568.06,1926.62 568.40,1926.79 568.75,1926.95 569.09,1927.11 569.44,1927.27 569.78,1927.43 570.13,1927.59 570.44,1927.81 570.75,1928.03 571.07,1928.25 571.38,1928.47 571.69,1928.69 572.00,1928.91 572.27,1929.18 572.54,1929.45 572.81,1929.72 573.08,1929.99 573.35,1930.26 573.62,1930.53 573.83,1930.84 574.05,1931.16 574.27,1931.47 574.49,1931.78 574.71,1932.09 574.93,1932.41 574.99,1932.51" spreadType="center"/>
    <edge id="12338" from="10430" to="6311" priority="45" numLanes="2" speed="22.22" spreadType="center"/>
    <edge id="12387" from="10451" to="10510" priority="55" numLanes="1" speed="11.11"/>
    <edge id="12388" from="10455" to="10510" priority="55" numLanes="1" speed="11.11"/>
    <edge id="12396" from="10459" to="10513" priority="48" numLanes="2" speed="16.66" shape="876.94,2107.63 862.57,2126.82 802.05,2264.25 791.12,2287.12 776.91,2312.52 757.24,2346.99 737.22,2375.29 716.10,2405.77 694.99,2433.34 656.05,2481.59 629.84,2515.69 604.37,2547.61 586.89,2574.46 567.59,2605.66 547.55,2643.77 532.24,2677.52 517.64,2719.27 500.11,2775.90 479.60,2840.00 465.73,2881.75 458.06,2907.89 446.76,2934.39 433.27,2964.15 383.34,3070.85 329.02,3191.35 263.41,3334.72 249.67,3364.77" spreadType="center"/>
    <edge id="12405" from="10515" to="10457" priority="48" numLanes="2" speed="16.66" shape="240.00,3360.00 344.50,3124.15 359.95,3093.96 374.53,3064.05 389.10,3035.02 399.31,3014.11 406.60,2998.44 416.51,2978.11 424.97,2958.37 434.30,2937.17 444.51,2911.61 454.14,2887.80 463.48,2860.21 470.20,2841.05 492.39,2769.89 500.29,2738.52 506.42,2721.97 518.39,2688.28 531.79,2656.20 549.00,2619.61 565.61,2590.87 613.19,2521.23 652.31,2473.62 675.52,2442.79 706.01,2401.52 740.28,2351.77 770.87,2297.91 804.33,2224.89 849.11,2127.96 853.60,2113.47 854.97,2103.07" spreadType="center"/>
    <edge id="12527" from="10570" to="7801" priority="31" numLanes="3" speed="22.22" shape="138.83,1035.52 140.74,1041.85 150.00,1067.69 159.26,1091.99 166.63,1110.43 182.02,1144.27 203.48,1186.68 231.65,1233.63 251.24,1262.72 269.77,1288.85 284.81,1307.44 294.48,1319.03 313.74,1340.36 324.96,1353.16 350.63,1379.90 359.03,1388.10 361.07,1390.22 362.97,1391.92 364.59,1393.05 367.34,1395.03 369.45,1396.44 372.56,1397.86 390.15,1403.39" spreadType="center"/>
    <edge id="1286" from="1723" to="1733" priority="55" numLanes="1" speed="11.11"/>
    <edge id="3721" from="2227" to="6308" priority="54" numLanes="1" speed="13.88" shape="624.27,1206.07 587.82,1243.53 528.45,1304.97 521.27,1312.38 512.54,1321.45 509.52,1324.58 454.07,1381.70"/>
    <edge id="3722" from="2227" to="2210" priority="54" numLanes="1" speed="13.88" shape="624.27,1206.07 713.33,1114.07 776.17,1049.35 837.66,986.42 859.35,963.58"/>
    <edge id="5304" from="6463" to="6464" priority="72" numLanes="1" speed="16.66" spreadType="center"/>
    <edge id="5305" from="6464" to="6462" priority="72" numLanes="1" speed="16.66" spreadType="center"/>
    <edge id="5323" from="6412" to="6488" priority="68" numLanes="2" speed="16.66" shape="1619.06,704.60 1599.57,749.46 1544.53,865.75 1518.79,919.60" spreadType="center"/>
    <edge id="5349" from="6519" to="6523" priority="44" numLanes="3" speed="22.22" spreadType="center"/>
    <edge id="5484" from="6683" to="6289" priority="68" numLanes="2" speed="16.66" shape="1148.02,1606.39 1157.25,1589.75 1199.31,1508.15 1217.70,1472.41 1228.29,1452.60 1268.80,1376.98" spreadType="center"/>
    <edge id="5485" from="6289" to="6460" priority="12" numLanes="3" speed="27.77" shape="1268.80,1376.98 1319.89,1270.45 1367.58,1167.86" spreadType="center"/>
    <edge id="5652" from="6515" to="6876" priority="73" numLanes="1" speed="13.88" shape="779.26,2566.00 778.31,2568.67 777.09,2572.14 776.08,2575.13 775.30,2577.73 774.72,2580.67 774.37,2583.81 774.37,2587.14 774.66,2590.17 775.06,2592.36 775.55,2594.71 776.32,2596.97 776.97,2598.70 777.77,2600.39 778.90,2602.59 780.87,2605.56" spreadType="center"/>
    <edge id="5654" from="6515" to="6320" priority="73" numLanes="1" speed="13.88" shape="779.26,2566.00 838.14,2438.70 890.80,2324.66 934.60,2230.54 984.89,2127.22 1000.12,2097.57 1019.07,2053.61 1029.25,2035.64 1035.41,2024.86 1042.00,2013.47 1050.08,2001.73 1055.71,1993.58 1062.11,1984.30 1065.86,1980.23 1100.86,1942.41"/>
    <edge id="6038" from="7249" to="cluster_6272_6273_6278_6279_7759_7762_7763_9153" priority="53" numLanes="2" speed="13.88" shape="2066.78,2110.85 2042.48,2164.43 2033.85,2186.09" spreadType="center"/>
    <edge id="6039" from="cluster_6272_6273_6278_6279_7759_7762_7763_9153" to="7250" priority="30" numLanes="4" speed="22.22" shape="2033.85,2186.09 2067.08,2194.65 2117.96,2208.86" spreadType="center"/>
    <edge id="6040" from="7251" to="cluster_6272_6273_6278_6279_7759_7762_7763_9153" priority="30" numLanes="4" speed="22.22" shape="2114.24,2228.93 2025.67,2206.30" spreadType="center"/>
    <edge id="6041" from="cluster_6272_6273_6278_6279_7759_7762_7763_9153" to="9150" priority="53" numLanes="2" speed="13.88" shape="2025.67,2206.30 2019.70,2221.77 2003.97,2265.82" spreadType="center"/>
    <edge id="6042" from="9149" to="cluster_6272_6273_6278_6279_7759_7762_7763_9153" priority="53" numLanes="2" speed="13.88" shape="1965.11,2312.92 2007.77,2201.70" spreadType="center"/>
    <edge id="6043" from="7252" to="6274" priority="73" numLanes="1" speed="8.33" shape="1877.47,2166.51 1836.70,2160.95 1835.27,2160.75 1834.19,2160.75 1833.38,2160.71 1832.41,2160.83 1831.72,2160.90 1830.87,2161.10 1830.17,2161.40 1827.94,2162.38 1826.07,2163.21 1824.54,2163.59 1822.96,2163.71 1821.17,2163.69 1818.11,2163.32 1793.85,2155.38 1776.95,2149.80 1689.26,2118.29 1651.78,2103.60 1600.63,2082.77 1539.29,2055.42 1517.97,2045.29" spreadType="center"/>
    <edge id="6044" from="7253" to="cluster_6272_6273_6278_6279_7759_7762_7763_9153" priority="30" numLanes="4" speed="22.22" shape="1906.22,2152.62 1955.45,2165.94 2018.04,2181.88" spreadType="center"/>
    <edge id="6045" from="cluster_6272_6273_6278_6279_7759_7762_7763_9153" to="7254" priority="53" numLanes="2" speed="13.88" shape="2018.04,2181.88 2023.86,2164.02 2045.01,2115.99" spreadType="center"/>
    <edge id="6046" from="9149" to="7252" priority="88" numLanes="1" speed="22.22" shape="1965.11,2312.92 1980.04,2260.39 1982.63,2251.56 1983.93,2245.49 1984.19,2240.10 1984.30,2235.20 1983.64,2231.06 1982.80,2226.44 1980.83,2221.73 1978.11,2217.30 1974.63,2213.90 1970.39,2210.78 1963.05,2206.81 1953.17,2202.47 1946.11,2199.82 1936.13,2195.94 1929.63,2193.95 1877.47,2166.51" spreadType="center"/>
    <edge id="6116" from="cluster_1811_1970_2400_6194" to="6430" priority="44" numLanes="3" speed="22.22" shape="1733.64,438.96 1771.31,456.32 1810.28,472.56 1844.36,484.36" spreadType="center"/>
    <edge id="6117" from="6523" to="cluster_1811_1970_2400_6194" priority="44" numLanes="3" speed="22.22" shape="1852.67,505.58 1786.01,478.12 1751.26,462.87 1728.12,451.35" spreadType="center"/>
    <edge id="6119" from="6510" to="cluster_1811_1970_2400_6194" priority="67" numLanes="2" speed="22.22" shape="1674.22,475.95 1693.48,433.10" spreadType="center"/>
    <edge id="6121" from="cluster_1811_1970_2400_6194" to="6522" priority="67" numLanes="2" speed="22.22" shape="1699.49,420.28 1728.23,358.14" spreadType="center"/>
    <edge id="6123" from="cluster_1811_1970_2400_6194" to="6404" priority="67" numLanes="2" speed="22.22" shape="1728.12,451.35 1702.27,509.26" spreadType="center"/>
    <edge id="6124" from="6281" to="6316" priority="31" numLanes="3" speed="22.22" spreadType="center"/>
    <edge id="6208" from="1677" to="1722" priority="54" numLanes="1" speed="13.88" shape="2165.81,1880.07 2149.94,1916.99 2120.15,1990.18"/>
    <edge id="6483" from="6192" to="6521" priority="44" numLanes="2" speed="22.22" shape="1421.66,0.00 1435.27,87.61 1443.14,120.69 1449.99,141.88 1464.40,179.28 1475.56,202.54 1488.09,224.78 1498.91,242.88 1510.42,259.43 1520.05,271.85 1531.22,285.82 1542.29,297.64 1554.34,310.83 1587.30,340.90 1620.76,367.73 1631.66,375.85" spreadType="center"/>
    <edge id="6489" from="6287" to="6289" priority="12" numLanes="3" speed="27.77" shape="892.33,2188.73 924.71,2122.66 1014.70,1928.05 1044.43,1860.15 1102.98,1736.50 1152.05,1630.19 1268.80,1376.98" spreadType="center"/>