<?xml version="1.0" encoding="UTF-8"?>

<!-- generated on Mon 17 Dec 2018 02:20:52 PM +03 by Netedit Version 0.32.0
<?xml version="1.0" encoding="UTF-8"?>

<configuration xmlns:xsi="http://www.w3.org/2001/XMLSchema-instance" xsi:noNamespaceSchemaLocation="http://sumo.dlr.de/xsd/netconvertConfiguration.xsd">

    <input>
        <sumo-net-file value="/home/srizzo/RLTraffic/gym-gharrafa/gymGharrafa/assets/gharrafa.net.xml"/>
    </input>

    <output>
        <output-file value="/home/srizzo/RLTraffic/gym-gharrafa/gymGharrafa/assets/gharrafa.net.xml"/>
    </output>

    <processing>
        <no-turnarounds value="true"/>
        <offset.disable-normalization value="true"/>
        <lefthand value="false"/>
        <junctions.corner-detail value="0"/>
        <rectangular-lane-cut value="false"/>
        <walkingareas value="false"/>
    </processing>

</configuration>
-->

<net version="0.27" xmlns:xsi="http://www.w3.org/2001/XMLSchema-instance" xsi:noNamespaceSchemaLocation="http://sumo.dlr.de/xsd/net_file.xsd">

    <location netOffset="-545016.58,-2801341.78" convBoundary="0.00,0.00,2376.00,3364.77" origBoundary="51.446387,25.327948,51.470958,25.358369" projParameter="+proj=utm +zone=39 +ellps=WGS84 +datum=WGS84 +units=m +no_defs"/>

    <edge id=":10427_0" function="internal">
        <lane id=":10427_0_0" index="0" speed="18.05" length="56.26" shape="346.26,1509.34 338.83,1515.24 325.86,1525.87 312.33,1537.28 303.19,1545.51"/>
    </edge>
    <edge id=":10427_1" function="internal">
        <lane id=":10427_1_0" index="0" speed="19.44" length="56.20" shape="343.97,1506.83 303.19,1545.51"/>
        <lane id=":10427_1_1" index="1" speed="19.44" length="56.20" shape="341.63,1504.51 300.85,1543.19"/>
        <lane id=":10427_1_2" index="2" speed="19.44" length="56.20" shape="339.29,1502.18 300.85,1543.19"/>
    </edge>
    <edge id=":10430_0" function="internal">
        <lane id=":10430_0_0" index="0" speed="22.22" length="1.81" shape="320.36,1507.49 320.57,1507.27"/>
        <lane id=":10430_0_1" index="1" speed="22.22" length="1.81" shape="320.36,1507.49 322.92,1509.59"/>
        <lane id=":10430_0_2" index="2" speed="22.22" length="1.81" shape="322.71,1509.81 320.57,1507.27"/>
        <lane id=":10430_0_3" index="3" speed="22.22" length="1.81" shape="322.71,1509.81 322.92,1509.59"/>
    </edge>
    <edge id=":10444_0" function="internal">
        <lane id=":10444_0_0" index="0" speed="9.71" length="8.62" shape="546.86,1941.68 548.31,1939.57 549.27,1938.10 550.13,1936.58 551.29,1934.30"/>
    </edge>
    <edge id=":10444_1" function="internal">
        <lane id=":10444_1_0" index="0" speed="5.55" length="9.14" shape="551.12,1943.09 550.39,1940.48 550.04,1938.58 550.27,1936.73 551.29,1934.30"/>
    </edge>
    <edge id=":10446_0" function="internal">
        <lane id=":10446_0_0" index="0" speed="9.71" length="9.57" shape="554.75,1929.26 561.24,1922.22"/>
    </edge>
    <edge id=":10446_1" function="internal">
        <lane id=":10446_1_0" index="0" speed="5.55" length="10.04" shape="554.75,1929.26 556.76,1927.61 558.94,1926.50 561.31,1925.91 563.86,1925.85"/>
    </edge>
    <edge id=":10447_0" function="internal">
        <lane id=":10447_0_0" index="0" speed="12.50" length="11.45" shape="571.05,1954.12 567.19,1953.28 564.12,1953.19 561.83,1953.85 560.33,1955.25"/>
    </edge>
    <edge id=":10447_1" function="internal">
        <lane id=":10447_1_0" index="0" speed="8.33" length="12.86" shape="571.05,1954.12 567.71,1953.36 564.72,1952.86 561.78,1952.22 558.59,1951.06"/>
    </edge>
    <edge id=":10447_2" function="internal">
        <lane id=":10447_2_0" index="0" speed="9.71" length="12.47" shape="571.18,1949.57 568.14,1951.09 565.23,1951.91 562.57,1952.98 560.33,1955.25"/>
    </edge>
    <edge id=":10447_3" function="internal">
        <lane id=":10447_3_0" index="0" speed="5.55" length="13.31" shape="571.18,1949.57 568.08,1951.32 564.95,1952.16 561.79,1952.07 558.59,1951.06"/>
    </edge>
    <edge id=":10449_0" function="internal">
        <lane id=":10449_0_0" index="0" speed="9.71" length="5.68" shape="577.13,1929.32 576.35,1930.71 575.90,1932.07 575.76,1933.40 575.95,1934.70"/>
    </edge>
    <edge id=":10449_1" function="internal">
        <lane id=":10449_1_0" index="0" speed="5.55" length="6.40" shape="572.53,1929.44 573.89,1930.77 574.76,1931.77 575.38,1932.91 575.95,1934.70"/>
    </edge>
    <edge id=":10450_0" function="internal">
        <lane id=":10450_0_0" index="0" speed="8.33" length="7.34" shape="576.64,1939.34 576.64,1941.46 577.03,1942.89 577.76,1944.26 578.78,1946.19"/>
    </edge>
    <edge id=":10450_1" function="internal">
        <lane id=":10450_1_0" index="0" speed="5.55" length="7.53" shape="576.64,1939.34 576.45,1941.56 576.16,1943.09 575.53,1944.49 574.33,1946.35"/>
    </edge>
    <edge id=":10451_0" function="internal">
        <lane id=":10451_0_0" index="0" speed="11.11" length="2.86" shape="598.14,1965.28 597.38,1964.91 596.89,1964.61 596.43,1964.24 595.81,1963.66"/>
    </edge>
    <edge id=":10451_1" function="internal">
        <lane id=":10451_1_0" index="0" speed="11.11" length="2.92" shape="596.80,1961.40 597.65,1961.57 598.22,1961.72 598.78,1961.94 599.56,1962.31"/>
    </edge>
    <edge id=":10452_0" function="internal">
        <lane id=":10452_0_0" index="0" speed="13.88" length="0.21" shape="628.45,1852.98 628.34,1853.15"/>
    </edge>
    <edge id=":10452_1" function="internal">
        <lane id=":10452_1_0" index="0" speed="13.88" length="2.41" shape="628.45,1852.98 627.09,1853.57 626.17,1853.46"/>
    </edge>
    <edge id=":10452_4" function="internal">
        <lane id=":10452_4_0" index="0" speed="13.88" length="2.41" shape="626.17,1853.46 625.70,1852.67 625.69,1851.18"/>
    </edge>
    <edge id=":10452_2" function="internal">
        <lane id=":10452_2_0" index="0" speed="13.88" length="0.15" shape="625.60,1851.31 625.63,1851.27 625.65,1851.25 625.66,1851.22 625.69,1851.18"/>
    </edge>
    <edge id=":10452_3" function="internal">
        <lane id=":10452_3_0" index="0" speed="13.88" length="2.41" shape="625.60,1851.31 626.98,1850.74 627.89,1850.86"/>
    </edge>
    <edge id=":10452_5" function="internal">
        <lane id=":10452_5_0" index="0" speed="13.88" length="2.41" shape="627.89,1850.86 628.35,1851.66 628.34,1853.15"/>
    </edge>
    <edge id=":10453_0" function="internal">
        <lane id=":10453_0_0" index="0" speed="13.88" length="0.10" shape="660.01,1804.41 660.05,1804.35"/>
    </edge>
    <edge id=":10453_1" function="internal">
        <lane id=":10453_1_0" index="0" speed="13.88" length="2.41" shape="660.01,1804.41 658.62,1804.94 657.71,1804.79"/>
    </edge>
    <edge id=":10453_4" function="internal">
        <lane id=":10453_4_0" index="0" speed="13.88" length="2.41" shape="657.71,1804.79 657.28,1803.97 657.33,1802.49"/>
    </edge>
    <edge id=":10453_2" function="internal">
        <lane id=":10453_2_0" index="0" speed="13.88" length="0.10" shape="657.29,1802.55 657.33,1802.49"/>
    </edge>
    <edge id=":10453_3" function="internal">
        <lane id=":10453_3_0" index="0" speed="13.88" length="2.41" shape="657.29,1802.55 658.65,1801.96 659.57,1802.07"/>
    </edge>
    <edge id=":10453_5" function="internal">
        <lane id=":10453_5_0" index="0" speed="13.88" length="2.41" shape="659.57,1802.07 660.04,1802.86 660.05,1804.35"/>
    </edge>
    <edge id=":10454_0" function="internal">
        <lane id=":10454_0_0" index="0" speed="11.11" length="3.65" shape="745.57,1674.34 744.73,1675.01 744.20,1675.53 743.77,1676.15 743.25,1677.09"/>
    </edge>
    <edge id=":10454_1" function="internal">
        <lane id=":10454_1_0" index="0" speed="11.11" length="4.06" shape="740.34,1675.54 740.90,1674.48 741.24,1673.72 741.45,1672.92 741.60,1671.73"/>
    </edge>
    <edge id=":10455_0" function="internal">
        <lane id=":10455_0_0" index="0" speed="11.11" length="5.32" shape="846.30,2085.03 845.26,2083.84 844.52,2083.03 843.66,2082.37 842.28,2081.63"/>
    </edge>
    <edge id=":10455_1" function="internal">
        <lane id=":10455_1_0" index="0" speed="11.11" length="11.26" shape="843.70,2078.66 846.53,2080.10 848.71,2081.27 850.95,2082.29 853.96,2083.24"/>
    </edge>
    <edge id=":10456_0" function="internal">
        <lane id=":10456_0_0" index="0" speed="8.33" length="6.18" shape="854.21,2098.66 853.93,2096.89 853.43,2095.75 852.69,2094.68 851.70,2093.13"/>
    </edge>
    <edge id=":10456_1" function="internal">
        <lane id=":10456_1_0" index="0" speed="5.55" length="6.66" shape="854.21,2098.66 854.17,2096.72 854.44,2095.40 855.00,2094.13 855.85,2092.34"/>
    </edge>
    <edge id=":10457_0" function="internal">
        <lane id=":10457_0_0" index="0" speed="5.55" length="10.32" shape="860.15,2109.62 857.67,2107.92 856.22,2106.36 855.34,2104.40 854.55,2101.47"/>
    </edge>
    <edge id=":10457_1" function="internal">
        <lane id=":10457_1_0" index="0" speed="11.11" length="9.44" shape="852.35,2110.36 853.10,2107.68 854.09,2105.87 854.76,2104.09 854.55,2101.47"/>
        <lane id=":10457_1_1" index="1" speed="11.11" length="9.44" shape="855.62,2110.79 855.87,2108.01 855.74,2106.09 855.28,2104.19 854.55,2101.47"/>
    </edge>
    <edge id=":10458_0" function="internal">
        <lane id=":10458_0_0" index="0" speed="8.33" length="10.29" shape="858.45,2084.27 861.43,2084.75 863.53,2085.13 865.64,2085.42 868.64,2085.64"/>
    </edge>
    <edge id=":10458_1" function="internal">
        <lane id=":10458_1_0" index="0" speed="5.55" length="10.57" shape="858.82,2088.69 860.74,2087.23 863.02,2086.23 865.65,2085.70 868.64,2085.64"/>
    </edge>
    <edge id=":10459_0" function="internal">
        <lane id=":10459_0_0" index="0" speed="11.11" length="12.78" shape="877.95,2106.36 876.17,2109.01 875.05,2111.44 873.81,2114.10 871.66,2117.44"/>
        <lane id=":10459_0_1" index="1" speed="11.11" length="12.78" shape="877.95,2106.36 875.76,2108.70 873.73,2110.45 871.58,2112.43 869.02,2115.46"/>
    </edge>
    <edge id=":10459_2" function="internal">
        <lane id=":10459_2_0" index="0" speed="5.55" length="13.61" shape="877.95,2106.36 875.39,2108.92 872.55,2110.67 869.43,2111.60 866.03,2111.70"/>
    </edge>
    <edge id=":10510_0" function="internal">
        <lane id=":10510_0_0" index="0" speed="11.11" length="0.10" shape="693.31,2010.63 693.31,2010.63"/>
    </edge>
    <edge id=":10510_1" function="internal">
        <lane id=":10510_1_0" index="0" speed="11.11" length="4.82" shape="693.31,2010.63 692.55,2009.35 692.53,2008.43 693.26,2007.86 694.73,2007.65"/>
    </edge>
    <edge id=":10510_2" function="internal">
        <lane id=":10510_2_0" index="0" speed="11.11" length="0.10" shape="694.73,2007.65 694.73,2007.65"/>
    </edge>
    <edge id=":10510_3" function="internal">
        <lane id=":10510_3_0" index="0" speed="11.11" length="4.82" shape="694.73,2007.65 695.49,2008.93 695.51,2009.85 694.78,2010.42 693.31,2010.63"/>
    </edge>
    <edge id=":1677_0" function="internal">
        <lane id=":1677_0_0" index="0" speed="13.88" length="67.26" shape="2163.48,1877.23 2163.55,1881.82 2160.00,1893.92 2152.85,1913.53 2142.09,1940.66"/>
    </edge>
    <edge id=":1677_1" function="internal">
        <lane id=":1677_1_0" index="0" speed="13.88" length="63.54" shape="2136.04,1937.94 2148.55,1913.18 2157.07,1895.31 2161.60,1884.33 2162.14,1880.24"/>
    </edge>
    <edge id=":1677_2" function="internal">
        <lane id=":1677_2_0" index="0" speed="13.88" length="75.20" shape="2136.04,1937.94 2149.27,1913.13 2154.68,1905.31 2152.29,1914.49 2142.09,1940.66"/>
    </edge>
    <edge id=":1677_3" function="internal">
        <lane id=":1677_3_0" index="0" speed="13.88" length="63.47" shape="2139.05,1939.36 2142.95,1929.79 2151.08,1909.60 2158.97,1889.52 2162.14,1880.24"/>
    </edge>
    <edge id=":1677_4" function="internal">
        <lane id=":1677_4_0" index="0" speed="13.88" length="2.41" shape="2139.05,1939.36 2140.30,1938.55 2141.22,1938.49"/>
    </edge>
    <edge id=":1677_5" function="internal">
        <lane id=":1677_5_0" index="0" speed="13.88" length="2.41" shape="2141.22,1938.49 2141.82,1939.20 2142.09,1940.66"/>
    </edge>
    <edge id=":1680_0" function="internal">
        <lane id=":1680_0_0" index="0" speed="12.50" length="2.55" shape="1982.62,1800.42 1981.95,1800.23 1981.38,1800.29 1980.90,1800.62 1980.52,1801.21"/>
    </edge>
    <edge id=":1680_1" function="internal">
        <lane id=":1680_1_0" index="0" speed="12.50" length="7.81" shape="1977.53,1799.82 1978.69,1798.03 1980.15,1797.03 1981.91,1796.82 1983.96,1797.40"/>
    </edge>
    <edge id=":1722_0" function="internal">
        <lane id=":1722_0_0" index="0" speed="11.11" length="21.82" shape="2111.01,2017.02 2103.83,2037.62"/>
    </edge>
    <edge id=":1722_1" function="internal">
        <lane id=":1722_1_0" index="0" speed="13.88" length="22.00" shape="2111.01,2017.02 2108.89,2021.37 2105.91,2026.76 2102.91,2032.14 2100.72,2036.46"/>
    </edge>
    <edge id=":1723_0" function="internal">
        <lane id=":1723_0_0" index="0" speed="9.72" length="17.29" shape="2111.10,2077.81 2107.13,2076.48 2102.73,2074.93 2098.35,2073.90 2094.42,2074.16"/>
    </edge>
    <edge id=":1723_1" function="internal">
        <lane id=":1723_1_0" index="0" speed="9.72" length="9.84" shape="2103.21,2070.39 2105.53,2072.13 2107.26,2073.16 2109.15,2073.85 2111.96,2074.63"/>
    </edge>
    <edge id=":2168_0" function="internal">
        <lane id=":2168_0_0" index="0" speed="11.11" length="0.29" shape="1067.97,1165.37 1067.82,1165.62"/>
    </edge>
    <edge id=":2168_1" function="internal">
        <lane id=":2168_1_0" index="0" speed="11.11" length="2.41" shape="1067.97,1165.37 1066.62,1166.00 1065.70,1165.92"/>
    </edge>
    <edge id=":2168_4" function="internal">
        <lane id=":2168_4_0" index="0" speed="11.11" length="2.41" shape="1065.70,1165.92 1065.21,1165.14 1065.15,1163.66"/>
    </edge>
    <edge id=":2168_2" function="internal">
        <lane id=":2168_2_0" index="0" speed="11.11" length="0.31" shape="1064.99,1163.92 1065.15,1163.66"/>
    </edge>
    <edge id=":2168_3" function="internal">
        <lane id=":2168_3_0" index="0" speed="11.11" length="2.41" shape="1064.99,1163.92 1066.33,1163.28 1067.25,1163.35"/>
    </edge>
    <edge id=":2168_5" function="internal">
        <lane id=":2168_5_0" index="0" speed="11.11" length="2.41" shape="1067.25,1163.35 1067.75,1164.13 1067.82,1165.62"/>
    </edge>
    <edge id=":2184_0" function="internal">
        <lane id=":2184_0_0" index="0" speed="11.11" length="0.31" shape="979.87,1372.28 979.80,1372.59"/>
    </edge>
    <edge id=":2184_1" function="internal">
        <lane id=":2184_1_0" index="0" speed="11.11" length="2.41" shape="979.87,1372.28 978.80,1373.33 977.91,1373.56"/>
    </edge>
    <edge id=":2184_4" function="internal">
        <lane id=":2184_4_0" index="0" speed="11.11" length="2.41" shape="977.91,1373.56 977.19,1372.99 976.64,1371.60"/>
    </edge>
    <edge id=":2184_2" function="internal">
        <lane id=":2184_2_0" index="0" speed="11.11" length="0.29" shape="976.58,1371.88 976.64,1371.60"/>
    </edge>
    <edge id=":2184_3" function="internal">
        <lane id=":2184_3_0" index="0" speed="11.11" length="2.41" shape="976.58,1371.88 977.65,1370.85 978.54,1370.62"/>
    </edge>
    <edge id=":2184_5" function="internal">
        <lane id=":2184_5_0" index="0" speed="11.11" length="2.41" shape="978.54,1370.62 979.26,1371.20 979.80,1372.59"/>
    </edge>
    <edge id=":2210_0" function="internal">
        <lane id=":2210_0_0" index="0" speed="13.88" length="9.57" shape="864.28,960.85 857.66,967.76"/>
    </edge>
    <edge id=":2210_1" function="internal">
        <lane id=":2210_1_0" index="0" speed="12.50" length="11.27" shape="864.28,960.85 861.77,962.79 859.37,963.33 857.06,962.46 854.86,960.18"/>
    </edge>
    <edge id=":2210_2" function="internal">
        <lane id=":2210_2_0" index="0" speed="12.50" length="5.23" shape="857.53,958.25 858.56,959.30 859.63,959.71 860.74,959.46 861.90,958.56"/>
    </edge>
    <edge id=":2210_3" function="internal">
        <lane id=":2210_3_0" index="0" speed="12.50" length="10.44" shape="857.53,958.25 859.02,960.90 859.54,963.36 859.09,965.65 857.66,967.76"/>
    </edge>
    <edge id=":2210_4" function="internal">
        <lane id=":2210_4_0" index="0" speed="12.50" length="5.82" shape="855.26,965.49 855.97,964.39 856.14,963.13 855.77,961.73 854.86,960.18"/>
    </edge>
    <edge id=":2210_5" function="internal">
        <lane id=":2210_5_0" index="0" speed="13.88" length="9.60" shape="855.26,965.49 861.90,958.56"/>
    </edge>
    <edge id=":2227_0" function="internal">
        <lane id=":2227_0_0" index="0" speed="13.88" length="0.30" shape="625.56,1207.11 625.35,1207.33"/>
    </edge>
    <edge id=":2227_1" function="internal">
        <lane id=":2227_1_0" index="0" speed="13.88" length="2.41" shape="625.56,1207.11 624.11,1207.43 623.23,1207.15"/>
    </edge>
    <edge id=":2227_4" function="internal">
        <lane id=":2227_4_0" index="0" speed="13.88" length="2.41" shape="623.23,1207.15 622.92,1206.28 623.19,1204.81"/>
    </edge>
    <edge id=":2227_2" function="internal">
        <lane id=":2227_2_0" index="0" speed="13.88" length="0.30" shape="622.98,1205.03 623.19,1204.81"/>
    </edge>
    <edge id=":2227_3" function="internal">
        <lane id=":2227_3_0" index="0" speed="13.88" length="2.41" shape="622.98,1205.03 624.44,1204.72 625.32,1204.99"/>
    </edge>
    <edge id=":2227_5" function="internal">
        <lane id=":2227_5_0" index="0" speed="13.88" length="2.41" shape="625.32,1204.99 625.62,1205.87 625.35,1207.33"/>
    </edge>
    <edge id=":2386_0" function="internal">
        <lane id=":2386_0_0" index="0" speed="12.50" length="5.40" shape="1174.02,995.73 1172.70,995.31 1171.50,995.43 1170.42,996.10 1169.47,997.31"/>
    </edge>
    <edge id=":2386_1" function="internal">
        <lane id=":2386_1_0" index="0" speed="13.88" length="9.62" shape="1174.02,995.73 1165.44,991.38"/>
    </edge>
    <edge id=":2386_2" function="internal">
        <lane id=":2386_2_0" index="0" speed="12.50" length="7.87" shape="1174.02,995.73 1171.61,994.30 1170.08,992.88 1169.45,991.47 1169.70,990.06"/>
    </edge>
    <edge id=":2386_3" function="internal">
        <lane id=":2386_3_0" index="0" speed="11.11" length="6.60" shape="1172.65,991.53 1169.47,997.31"/>
    </edge>
    <edge id=":2386_4" function="internal">
        <lane id=":2386_4_0" index="0" speed="12.50" length="3.17" shape="1172.65,991.53 1171.68,992.58 1170.15,992.90 1169.98,992.87"/>
    </edge>
    <edge id=":2386_5" function="internal">
        <lane id=":2386_5_0" index="0" speed="11.11" length="2.54" shape="1172.65,991.53 1171.36,992.27 1170.44,992.27 1170.36,992.17"/>
    </edge>
    <edge id=":2386_8" function="internal">
        <lane id=":2386_8_0" index="0" speed="12.50" length="4.80" shape="1169.98,992.87 1168.07,992.51 1165.44,991.38"/>
    </edge>
    <edge id=":2386_9" function="internal">
        <lane id=":2386_9_0" index="0" speed="11.11" length="2.28" shape="1170.36,992.17 1169.89,991.54 1169.70,990.06"/>
    </edge>
    <edge id=":2386_6" function="internal">
        <lane id=":2386_6_0" index="0" speed="12.50" length="5.09" shape="1166.64,995.60 1167.19,994.31 1167.17,993.17 1166.59,992.20 1165.44,991.38"/>
    </edge>
    <edge id=":2386_7" function="internal">
        <lane id=":2386_7_0" index="0" speed="11.11" length="6.33" shape="1166.64,995.60 1169.70,990.06"/>
    </edge>
    <edge id=":2410__0" function="internal">
        <lane id=":2410__0_0" index="0" speed="13.88" length="5.06" shape="969.39,856.81 968.30,855.93 967.21,855.63 966.11,855.90 965.01,856.76"/>
    </edge>
    <edge id=":2410__1" function="internal">
        <lane id=":2410__1_0" index="0" speed="13.88" length="9.54" shape="969.39,856.81 962.83,849.88"/>
    </edge>
    <edge id=":2410__2" function="internal">
        <lane id=":2410__2_0" index="0" speed="13.88" length="7.95" shape="969.39,856.81 967.61,854.59 966.67,852.71 966.58,851.15 967.33,849.93"/>
    </edge>
    <edge id=":2410__3" function="internal">
        <lane id=":2410__3_0" index="0" speed="13.88" length="6.30" shape="969.54,852.38 965.01,856.76"/>
    </edge>
    <edge id=":2410__4" function="internal">
        <lane id=":2410__4_0" index="0" speed="13.88" length="2.98" shape="969.54,852.38 968.26,853.00 966.72,852.79"/>
    </edge>
    <edge id=":2410__7" function="internal">
        <lane id=":2410__7_0" index="0" speed="13.88" length="4.88" shape="966.72,852.79 964.91,851.75 962.83,849.88"/>
    </edge>
    <edge id=":2410__5" function="internal">
        <lane id=":2410__5_0" index="0" speed="13.88" length="5.19" shape="962.64,854.46 963.52,853.28 963.84,852.12 963.62,850.99 962.83,849.88"/>
    </edge>
    <edge id=":2410__6" function="internal">
        <lane id=":2410__6_0" index="0" speed="13.88" length="6.53" shape="962.64,854.46 967.33,849.93"/>
    </edge>
    <edge id=":2496_0" function="internal">
        <lane id=":2496_0_0" index="0" speed="13.88" length="0.29" shape="1162.16,981.56 1162.42,981.70"/>
    </edge>
    <edge id=":6274_0" function="internal">
        <lane id=":6274_0_0" index="0" speed="11.11" length="0.30" shape="1518.11,2045.35 1517.84,2045.23"/>
    </edge>
    <edge id=":6276_0" function="internal">
        <lane id=":6276_0_0" index="0" speed="11.11" length="13.31" shape="1486.84,1972.28 1490.77,1973.92 1494.21,1974.87 1497.17,1975.12 1499.64,1974.67"/>
    </edge>
    <edge id=":6276_1" function="internal">
        <lane id=":6276_1_0" index="0" speed="13.88" length="12.99" shape="1486.84,1972.28 1489.89,1973.86 1492.52,1975.42 1495.10,1977.08 1498.01,1978.91"/>
    </edge>
    <edge id=":6277_0" function="internal">
        <lane id=":6277_0_0" index="0" speed="22.21" length="4.54" shape="1290.77,1385.70 1288.14,1387.83"/>
        <lane id=":6277_0_1" index="1" speed="22.21" length="4.54" shape="1290.77,1385.70 1285.13,1386.44"/>
    </edge>
    <edge id=":6277_2" function="internal">
        <lane id=":6277_2_0" index="0" speed="27.77" length="3.73" shape="1287.76,1384.36 1289.52,1388.47"/>
        <lane id=":6277_2_1" index="1" speed="27.77" length="3.73" shape="1287.76,1384.36 1286.52,1387.09"/>
    </edge>
    <edge id=":6277_4" function="internal">
        <lane id=":6277_4_0" index="0" speed="22.21" length="3.35" shape="1287.76,1384.36 1285.13,1386.44"/>
    </edge>
    <edge id=":6277_5" function="internal">
        <lane id=":6277_5_0" index="0" speed="27.77" length="3.69" shape="1284.74,1383.03 1286.52,1387.09"/>
        <lane id=":6277_5_1" index="1" speed="27.77" length="3.69" shape="1284.74,1383.03 1283.53,1385.70"/>
    </edge>
    <edge id=":6280_0" function="internal">
        <lane id=":6280_0_0" index="0" speed="9.72" length="3.79" shape="1838.85,2107.52 1838.39,2108.54 1838.17,2109.28 1838.13,2110.06 1838.20,2111.18"/>
    </edge>
    <edge id=":6280_1" function="internal">
        <lane id=":6280_1_0" index="0" speed="9.72" length="6.02" shape="1832.89,2111.22 1834.17,2110.05 1834.79,2109.01 1835.20,2107.80 1835.85,2106.13"/>
    </edge>
    <edge id=":6281_0" function="internal">
        <lane id=":6281_0_0" index="0" speed="15.27" length="9.36" shape="865.10,1676.94 866.13,1679.52 867.05,1681.26 868.43,1682.58 870.81,1683.87"/>
    </edge>
    <edge id=":6281_1" function="internal">
        <lane id=":6281_1_0" index="0" speed="22.22" length="9.90" shape="862.03,1679.53 870.81,1683.87"/>
        <lane id=":6281_1_1" index="1" speed="22.22" length="9.90" shape="860.55,1682.48 869.42,1686.87"/>
        <lane id=":6281_1_2" index="2" speed="22.22" length="9.90" shape="859.08,1685.43 868.04,1689.86"/>
    </edge>
    <edge id=":6287_0" function="internal">
        <lane id=":6287_0_0" index="0" speed="24.99" length="52.24" shape="891.38,2179.08 896.60,2165.62 900.22,2152.63 903.28,2140.42 906.83,2129.31"/>
        <lane id=":6287_0_1" index="1" speed="24.99" length="52.24" shape="891.38,2179.08 910.02,2130.22"/>
    </edge>
    <edge id=":6287_2" function="internal">
        <lane id=":6287_2_0" index="0" speed="27.77" length="52.98" shape="891.38,2179.08 916.30,2132.32"/>
    </edge>
    <edge id=":6287_3" function="internal">
        <lane id=":6287_3_0" index="0" speed="24.99" length="52.68" shape="891.38,2179.08 913.21,2131.13"/>
    </edge>
    <edge id=":6287_4" function="internal">
        <lane id=":6287_4_0" index="0" speed="27.77" length="52.91" shape="894.37,2180.48 916.30,2132.32"/>
    </edge>
    <edge id=":6287_5" function="internal">
        <lane id=":6287_5_0" index="0" speed="24.99" length="52.77" shape="894.37,2180.48 899.12,2166.81 901.71,2153.33 903.75,2140.64 906.83,2129.31"/>
        <lane id=":6287_5_1" index="1" speed="24.99" length="52.77" shape="894.37,2180.48 899.62,2166.95 903.31,2153.79 906.44,2141.41 910.02,2130.22"/>
        <lane id=":6287_5_2" index="2" speed="24.99" length="52.77" shape="894.37,2180.48 913.21,2131.13"/>
    </edge>
    <edge id=":6287_8" function="internal">
        <lane id=":6287_8_0" index="0" speed="27.77" length="53.05" shape="894.37,2180.48 919.26,2133.78"/>
        <lane id=":6287_8_1" index="1" speed="27.77" length="53.05" shape="894.37,2180.48 901.38,2167.66 909.01,2156.11 916.28,2145.44 922.23,2135.23"/>
    </edge>
    <edge id=":6287_10" function="internal">
        <lane id=":6287_10_0" index="0" speed="24.99" length="53.22" shape="897.36,2181.88 902.64,2168.27 906.39,2154.94 909.59,2142.40 913.21,2131.13"/>
    </edge>
    <edge id=":6287_11" function="internal">
        <lane id=":6287_11_0" index="0" speed="27.77" length="53.05" shape="897.36,2181.88 916.30,2132.32"/>
    </edge>
    <edge id=":6287_12" function="internal">
        <lane id=":6287_12_0" index="0" speed="24.99" length="53.32" shape="897.36,2181.88 902.14,2168.13 904.80,2154.49 906.90,2141.63 910.02,2130.22"/>
    </edge>
    <edge id=":6287_13" function="internal">
        <lane id=":6287_13_0" index="0" speed="27.77" length="52.86" shape="897.36,2181.88 919.26,2133.78"/>
        <lane id=":6287_13_1" index="1" speed="27.77" length="52.86" shape="897.36,2181.88 922.23,2135.23"/>
    </edge>
    <edge id=":6287_15" function="internal">
        <lane id=":6287_15_0" index="0" speed="24.99" length="53.83" shape="900.35,2183.28 905.16,2169.45 907.89,2155.64 910.06,2142.62 913.21,2131.13"/>
    </edge>
    <edge id=":6287_16" function="internal">
        <lane id=":6287_16_0" index="0" speed="27.77" length="53.09" shape="900.35,2183.28 905.49,2169.57 909.03,2156.06 912.21,2143.42 916.30,2132.32"/>
        <lane id=":6287_16_1" index="1" speed="27.77" length="53.09" shape="900.35,2183.28 919.26,2133.78"/>
        <lane id=":6287_16_2" index="2" speed="27.77" length="53.09" shape="900.35,2183.28 922.23,2135.23"/>
    </edge>
    <edge id=":6289_0" function="internal">
        <lane id=":6289_0_0" index="0" speed="22.21" length="3.43" shape="1266.66,1377.48 1266.45,1374.25"/>
        <lane id=":6289_0_1" index="1" speed="22.21" length="3.43" shape="1269.57,1379.04 1269.78,1378.10 1269.52,1377.37 1269.25,1376.63 1269.43,1375.67"/>
        <lane id=":6289_0_2" index="2" speed="22.21" length="3.43" shape="1269.57,1379.04 1270.25,1378.31 1271.01,1378.08 1271.76,1377.84 1272.40,1377.10"/>
    </edge>
    <edge id=":6289_3" function="internal">
        <lane id=":6289_3_0" index="0" speed="27.77" length="3.65" shape="1265.28,1376.74 1266.45,1374.25"/>
        <lane id=":6289_3_1" index="1" speed="27.77" length="3.65" shape="1265.28,1376.74 1269.43,1375.67"/>
        <lane id=":6289_3_2" index="2" speed="27.77" length="3.65" shape="1268.19,1378.30 1269.43,1375.67"/>
        <lane id=":6289_3_3" index="3" speed="27.77" length="3.65" shape="1268.19,1378.30 1272.40,1377.10"/>
        <lane id=":6289_3_4" index="4" speed="27.77" length="3.65" shape="1271.11,1379.86 1269.43,1375.67"/>
        <lane id=":6289_3_5" index="5" speed="27.77" length="3.65" shape="1271.11,1379.86 1272.40,1377.10"/>
    </edge>
    <edge id=":6304_0" function="internal">
        <lane id=":6304_0_0" index="0" speed="12.50" length="5.41" shape="437.10,1413.72 436.99,1415.09 436.99,1416.04 437.07,1416.98 437.22,1418.36"/>
        <lane id=":6304_0_1" index="1" speed="12.50" length="5.41" shape="437.10,1413.72 436.44,1415.32 435.30,1416.20 434.26,1417.08 433.93,1418.68"/>
    </edge>
    <edge id=":6304_2" function="internal">
        <lane id=":6304_2_0" index="0" speed="11.11" length="4.09" shape="432.71,1416.17 437.22,1418.36"/>
        <lane id=":6304_2_1" index="1" speed="11.11" length="4.09" shape="432.71,1416.17 433.19,1416.87 433.54,1417.35 433.79,1417.87 433.93,1418.68"/>
        <lane id=":6304_2_2" index="2" speed="11.11" length="4.09" shape="429.27,1416.91 433.93,1418.68"/>
        <lane id=":6304_2_3" index="3" speed="11.11" length="4.09" shape="429.27,1416.91 430.64,1419.01"/>
        <lane id=":6304_2_4" index="4" speed="11.11" length="4.09" shape="425.72,1417.67 430.64,1419.01"/>
    </edge>
    <edge id=":6305_0" function="internal">
        <lane id=":6305_0_0" index="0" speed="16.66" length="16.06" shape="438.76,1434.93 439.40,1439.49 440.87,1442.37 442.95,1445.10 445.42,1449.20"/>
    </edge>
    <edge id=":6305_1" function="internal">
        <lane id=":6305_1_0" index="0" speed="11.11" length="18.72" shape="438.76,1434.93 438.91,1440.47 438.69,1444.32 437.63,1447.99 435.29,1452.97"/>
    </edge>
    <edge id=":6305_2" function="internal">
        <lane id=":6305_2_0" index="0" speed="16.66" length="17.56" shape="435.46,1435.06 436.13,1440.06 437.66,1443.25 439.85,1446.27 442.52,1450.78"/>
    </edge>
    <edge id=":6305_3" function="internal">
        <lane id=":6305_3_0" index="0" speed="11.11" length="18.24" shape="435.46,1435.06 435.56,1440.45 435.24,1444.18 434.11,1447.73 431.79,1452.58"/>
    </edge>
    <edge id=":6305_4" function="internal">