<?xml version="1.0" encoding="UTF-8"?>

<!-- generated on Wed Nov 14 12:10:38 2018 by SUMO duarouter Version 0.32.0
<?xml version="1.0" encoding="UTF-8"?>

<configuration xmlns:xsi="http://www.w3.org/2001/XMLSchema-instance" xsi:noNamespaceSchemaLocation="http://sumo.dlr.de/xsd/duarouterConfiguration.xsd">

    <input>
        <net-file value="gharrafa.net.xml"/>
        <route-files value="od_001.rou.alt.xml"/>
        <weight-files value="dump_001_900.xml"/>
    </input>

    <output>
        <output-file value="od_002.rou.xml"/>
        <alternatives-output value="od_002.rou.alt.xml"/>
        <exit-times value="false"/>
    </output>

    <processing>
        <ignore-errors value="false"/>
        <max-alternatives value="5"/>
        <with-taz value="false"/>
        <weights.expand value="true"/>
        <routing-algorithm value="dijkstra"/>
        <gawron.beta value="0.9"/>
        <gawron.a value="0.5"/>
        <keep-all-routes value="false"/>
        <logit value="false"/>
        <logit.beta value="0.15"/>
        <logit.gamma value="1"/>
    </processing>

    <time>
        <begin value="0"/>
    </time>

    <report>
        <verbose value="false"/>
        <no-warnings value="false"/>
        <no-step-log value="true"/>
    </report>

    <random_number>
        <random value="false"/>
    </random_number>

</configuration>
-->

<routes xmlns:xsi="http://www.w3.org/2001/XMLSchema-instance" xsi:noNamespaceSchemaLocation="http://sumo.dlr.de/xsd/routes_file.xsd">
    <vehicle id="63" depart="25200.79" departLane="free" departSpeed="max" fromTaz="00" toTaz="02">
        <route edges="7617 6040 7593 7594 7566 -6487 5652 10393 10394"/>
    </vehicle>
    <vehicle id="7387" depart="25201.27" departLane="free" departSpeed="max" fromTaz="10" toTaz="03">
        <route edges="8111 7539 6511 7545 6526 10389"/>
    </vehicle>
    <vehicle id="1162" depart="25201.83" departLane="free" departSpeed="max" fromTaz="01" toTaz="05">
        <route edges="10423 10424 6046 7594 7574 7550 7552 7553 7564 7543 7668 -11866 -11998 12051 12130 12203 12093"/>
    </vehicle>
    <vehicle id="3167" depart="25201.88" departLane="free" departSpeed="max" fromTaz="07" toTaz="04">
        <route edges="12527 7680 7681 7682 7673 7621 6124 7560 7555 7556 7548 7549 7550 7552 7553 7564 7543 7668 -11866 -11998 12051 12130 11902 12387 -12388 12108 11840 12396"/>
    </vehicle>
    <vehicle id="283" depart="25202.83" departLane="free" departSpeed="max" fromTaz="00" toTaz="03">
        <route edges="7617 6040 7593 7594 7574 7550 7559 6526 10389"/>
    </vehicle>
    <vehicle id="7758" depart="25203.42" departLane="free" departSpeed="max" fromTaz="10" toTaz="03">
        <route edges="8111 7539 6511 7545 6526 10389"/>
    </vehicle>
    <vehicle id="8402" depart="25203.85" departLane="free" departSpeed="max" fromTaz="10" toTaz="09">
        <route edges="8111 7539 6511 7542 7547 7548 7549 7550 7552 7553 7554 7555 7561 7796 5484 5485 7801 8030 8032 7531 7533"/>
    </vehicle>
    <vehicle id="8595" depart="25204.11" departLane="free" departSpeed="max" fromTaz="10" toTaz="12">
        <route edges="8111 7539 6511 7542 7547 7548 7557 7578 7584 7571 7572 -7573"/>
    </vehicle>
    <vehicle id="3003" depart="25204.33" departLane="free" departSpeed="max" fromTaz="07" toTaz="00">
        <route edges="12527 7680 7681 7682 7673 7621 6124 7560 7555 7556 7548 7557 7578 7584 7571 7569 7570 7576 7577 7587 7588 7592 7596 6208 7597 7598 7600 7359"/>
    </vehicle>
    <vehicle id="519" depart="25204.77" departLane="free" departSpeed="max" fromTaz="00" toTaz="03">
        <route edges="7617 6040 7593 7594 7574 7550 7559 6526 10389"/>
    </vehicle>
    <vehicle id="3852" depart="25204.80" departLane="free" departSpeed="max" fromTaz="09" toTaz="04">
        <route edges="6483 6539 6123 7537 7540 7539 6511 7542 7547 7548 7549 7550 7552 7553 7564 7543 7668 -11866 -11998 12051 12130 11902 12387 -12388 12108 11840 12396"/>
    </vehicle>
    <vehicle id="9013" depart="25204.89" departLane="free" departSpeed="max" fromTaz="11" toTaz="13">
        <route edges="5349 7523 7537 7538 5323 6513 7546 6511 7542 7558 7578 7579 7580 7581 7592 7596 6208 7595 1286"/>
    </vehicle>
    <vehicle id="7388" depart="25205.67" departLane="free" departSpeed="max" fromTaz="10" toTaz="03">
        <route edges="8111 7539 6511 7545 6526 10389"/>
    </vehicle>
    <vehicle id="4492" depart="25206.04" departLane="free" departSpeed="max" fromTaz="10" toTaz="00">
        <route edges="8111 7539 6511 7542 7558 7578 7584 7571 7569 7570 7576 7577 7587 7588 7592 7596 6208 7597 7598 7600 7359"/>
    </vehicle>
    <vehicle id="5933" depart="25206.68" departLane="free" departSpeed="max" fromTaz="10" toTaz="03">
        <route edges="8111 7539 6511 7545 6526 10389"/>
    </vehicle>
    <vehicle id="8970" depart="25207.04" departLane="free" departSpeed="max" fromTaz="11" toTaz="10">
        <route edges="5349 7523 7537 7540 7539 6511 7542 7547 7548 7549 7550 7552 7553 7554 7555 7561 7796 5484 5485 7801 8030 8031"/>
    </vehicle>
    <vehicle id="3039" depart="25207.36" departLane="free" departSpeed="max" fromTaz="07" toTaz="01">
        <route edges="12527 7680 7681 7682 7673 7621 6124 7560 7555 7556 7548 7557 7578 7579 7580 7591 6041 10410"/>
    </vehicle>
    <vehicle id="5425" depart="25207.63" departLane="free" departSpeed="max" fromTaz="10" toTaz="03">
        <route edges="8111 7539 6511 7545 6526 10389"/>
    </vehicle>
    <vehicle id="4104" depart="25208.70" departLane="free" departSpeed="max" fromTaz="09" toTaz="11">
        <route edges="6483 6539 6116 6515"/>
    </vehicle>
    <vehicle id="5710" depart="25208.97" departLane="free" departSpeed="max" fromTaz="10" toTaz="03">
        <route edges="8111 7539 6511 7545 6526 10389"/>
    </vehicle>
    <vehicle id="7047" depart="25209.39" departLane="free" departSpeed="max" fromTaz="10" toTaz="03">
        <route edges="8111 7539 6511 7545 6526 10389"/>
    </vehicle>
    <vehicle id="2237" depart="25210.87" departLane="free" departSpeed="max" fromTaz="04" toTaz="13">
        <route edges="12405 11880 12262 12388 -12387 11784 11923 11800 12020 11998 11866 7669 7544 7671 7684 7685 7686 7687 7680 7681 7682 7673 7621 6124 7560 7555 7556 7548 7557 7578 7584 7571 7569 7570 7576 7577 7587 7588 7592 7596 6208 7595 1286"/>
    </vehicle>
    <vehicle id="2995" depart="25211.00" departLane="free" departSpeed="max" fromTaz="07" toTaz="00">
        <route edges="12527 7680 7681 7682 7673 7621 6124 7560 7555 7556 7548 7557 7578 7579 7580 7581 6044 6039 7359"/>
    </vehicle>
    <vehicle id="8817" depart="25211.03" departLane="free" departSpeed="max" fromTaz="11" toTaz="00">
        <route edges="5349 7523 7537 7538 5323 6513 7546 6511 7542 7558 7578 7584 7571 7569 7570 7576 7577 7587 7588 7592 7596 6208 7597 7598 7600 7359"/>
    </vehicle>
    <vehicle id="245" depart="25211.12" departLane="free" departSpeed="max" fromTaz="00" toTaz="03">
        <route edges="7618 6045 7596 6208 7597 7603 7593 7594 7574 7550 7559 6526 10389"/>
    </vehicle>
    <vehicle id="2629" depart="25211.33" departLane="free" departSpeed="max" fromTaz="06" toTaz="02">
        <route edges="11597 12338 7675 7686 7687 7680 7681 7682 7673 7621 6124 7560 7555 7556 7548 7549 7550 7559 6526 10391 10392 10466 10467 10393 10394"/>
    </vehicle>
    <vehicle id="2359" depart="25211.57" departLane="free" departSpeed="max" fromTaz="05" toTaz="02">
        <route edges="12004 11800 12020 11998 11866 7669 7544 7671 7684 7685 7686 7687 7680 7681 7682 7673 7621 6124 7560 7555 7556 7548 7549 7550 7559 6526 10391 10392 10466 10467 10393 10394"/>
    </vehicle>
    <vehicle id="4204" depart="25211.71" departLane="free" departSpeed="max" fromTaz="09" toTaz="11">
        <route edges="6483 6539 6116 6515"/>
    </vehicle>
    <vehicle id="6469" depart="25211.86" departLane="free" departSpeed="max" fromTaz="10" toTaz="03">
        <route edges="8111 7539 6511 7545 6526 10389"/>
    </vehicle>
    <vehicle id="8771" depart="25212.00" departLane="free" departSpeed="max" fromTaz="11" toTaz="00">
        <route edges="5349 7523 7537 7540 7539 6511 7542 7547 7548 7557 7578 7579 7580 7581 6044 6039 7359"/>
    </vehicle>
    <vehicle id="4721" depart="25212.17" departLane="free" departSpeed="max" fromTaz="10" toTaz="02">
        <route edges="8111 7539 6511 7545 6526 10391 10392 10466 10467 10393 10394"/>
    </vehicle>
    <vehicle id="8630" depart="25213.54" departLane="free" departSpeed="max" fromTaz="10" toTaz="13">
        <route edges="8111 7539 6511 7542 7547 7548 7557 7578 7579 7580 7581 7592 7596 6208 7595 1286"/>
    </vehicle>
    <vehicle id="1993" depart="25214.71" departLane="free" departSpeed="max" fromTaz="04" toTaz="03">
        <route edges="12405 11880 12262 12388 -12387 11784 11923 11800 12020 11998 11866 7669 7544 7671 7684 7685 7686 7687 7680 7681 7682 7673 7621 6124 7560 7555 7556 7548 7549 7550 7559 6526 10389"/>
    </vehicle>
    <vehicle id="6866" depart="25215.55" departLane="free" departSpeed="max" fromTaz="10" toTaz="03">
        <route edges="8111 7539 6511 7545 6526 10389"/>
    </vehicle>
    <vehicle id="6814" depart="25215.74" departLane="free" departSpeed="max" fromTaz="10" toTaz="03">
        <route edges="8111 7539 6511 7545 6526 10389"/>
    </vehicle>
    <vehicle id="6201" depart="25215.75" departLane="free" departSpeed="max" fromTaz="10" toTaz="03">
        <route edges="8112 7535 6123 7537 7540 7539 6511 7545 6526 10389"/>
    </vehicle>
    <vehicle id="3842" depart="25216.08" departLane="free" departSpeed="max" fromTaz="09" toTaz="01">
        <route edges="6483 6539 6123 7537 7538 5323 6513 7546 6511 7542 7558 7578 7579 7580 7591 6041 10410"/>
    </vehicle>
    <vehicle id="88" depart="25216.72" departLane="free" departSpeed="max" fromTaz="00" toTaz="02">
        <route edges="7617 6040 7593 7594 7566 -6487 5652 10393 10394"/>
    </vehicle>
    <vehicle id="4578" depart="25218.30" departLane="free" departSpeed="max" fromTaz="10" toTaz="00">
        <route edges="8111 7539 6511 7542 7547 7548 7557 7578 7579 7580 7581 6044 6039 7359"/>
    </vehicle>
    <vehicle id="9" depart="25218.38" departLane="free" departSpeed="max" fromTaz="00" toTaz="02">
        <route edges="7617 6040 7593 7594 7566 -6487 5652 10393 10394"/>
    </vehicle>
    <vehicle id="4602" depart="25218.64" departLane="free" departSpeed="max" fromTaz="10" toTaz="01">
        <route edges="8111 7539 6511 7542 7558 7578 7584 7571 7569 7570 7576 7577 7587 7588 7592 7596 6208 7597 7598 6038 6041 10410"/>
    </vehicle>
    <vehicle id="6728" depart="25218.68" departLane="free" departSpeed="max" fromTaz="10" toTaz="03">
        <route edges="8111 7539 6511 7545 6526 10389"/>
    </vehicle>
    <vehicle id="2539" depart="25218.85" departLane="free" departSpeed="max" fromTaz="06" toTaz="00">
        <route edges="11597 12338 7675 7686 7687 7680 7681 7682 7673 7621 6124 7560 7555 7556 7548 7557 7578 7579 7580 7581 6044 6039 7359"/>
    </vehicle>
    <vehicle id="3433" depart="25218.86" departLane="free" departSpeed="max" fromTaz="08" toTaz="01">
        <route edges="7760 7780 -7770 8101 -8103 -2436 3721 7690 7682 7673 7621 6124 7560 7555 7556 7548 7557 7578 7579 7580 7591 6041 10410"/>
    </vehicle>
    <vehicle id="8482" depart="25218.86" departLane="free" departSpeed="max" fromTaz="10" toTaz="11">
        <route edges="8111 7539 6511 7542 7547 7548 7549 7550 7552 7553 7554 7555 7561 7796 5484 5485 7801 8030 8032 6119 6116 6515"/>
    </vehicle>
    <vehicle id="4507" depart="25218.94" departLane="free" departSpeed="max" fromTaz="10" toTaz="00">
        <route edges="8111 7539 6511 7542 7558 7578 7584 7571 7569 7570 7576 7577 7587 7588 7592 7596 6208 7597 7598 7600 7359"/>
    </vehicle>
    <vehicle id="748" depart="25218.97" departLane="free" departSpeed="max" fromTaz="00" toTaz="06">
        <route edges="7617 6040 7593 7594 7574 7550 7552 7553 7564 7543 7670 7544 7671 7684 7674 11548"/>
    </vehicle>
    <vehicle id="9112" depart="25219.12" departLane="free" departSpeed="max" fromTaz="12" toTaz="01">
        <route edges="1153 7575 7570 7576 7577 7587 7588 7592 7596 6208 7597 7598 6038 6041 10410"/>
    </vehicle>
    <vehicle id="412" depart="25219.60" departLane="free" departSpeed="max" fromTaz="00" toTaz="03">
        <route edges="7617 6040 7593 7594 7574 7550 7559 6526 10389"/>
    </vehicle>
    <vehicle id="4873" depart="25219.62" departLane="free" departSpeed="max" fromTaz="10" toTaz="03">
        <route edges="8111 7539 6511 7545 6526 10389"/>
    </vehicle>
    <vehicle id="950" depart="25219.77" departLane="free" departSpeed="max" fromTaz="01" toTaz="02">
        <route edges="10423 10424 6046 7594 7566 -6487 5652 10393 10394"/>
    </vehicle>
    <vehicle id="8737" depart="25220.38" departLane="free" departSpeed="max" fromTaz="11" toTaz="00">
        <route edges="5349 7523 7537 7538 5323 6513 7546 6511 7542 7558 7578 7584 7571 7569 7570 7576 7577 7587 7588 7592 7596 6208 7597 7598 7600 7359"/>
    </vehicle>
    <vehicle id="7916" depart="25221.49" departLane="free" departSpeed="max" fromTaz="10" toTaz="03">
        <route edges="8111 7539 6511 7545 6526 10389"/>
    </vehicle>
    <vehicle id="1588" depart="25221.76" departLane="free" departSpeed="max" fromTaz="03" toTaz="06">
        <route edges="6522 10339 7563 7543 7670 7544 7671 7684 7674 11548"/>
    </vehicle>
    <vehicle id="4614" depart="25222.42" departLane="free" departSpeed="max" fromTaz="10" toTaz="01">
        <route edges="8111 7539 6511 7542 7558 7578 7579 7580 7591 6041 10410"/>
    </vehicle>
    <vehicle id="8006" depart="25222.68" departLane="free" departSpeed="max" fromTaz="10" toTaz="03">
        <route edges="8111 7539 6511 7545 6526 10389"/>
    </vehicle>
    <vehicle id="3020" depart="25222.69" departLane="free" departSpeed="max" fromTaz="07" toTaz="01">
        <route edges="12527 7680 7681 7682 7673 7621 6124 7560 7555 7556 7548 7557 7578 7579 7580 7591 6041 10410"/>
    </vehicle>
    <vehicle id="1390" depart="25222.82" departLane="free" departSpeed="max" fromTaz="01" toTaz="11">
        <route edges="10342.0 10423 10424 6046 7594 7574 7550 7552 7553 7554 7555 7561 7796 5484 5485 7801 8030 8032 6119 6116 6515"/>
    </vehicle>
    <vehicle id="391" depart="25223.05" departLane="free" departSpeed="max" fromTaz="00" toTaz="03">
        <route edges="7617 6040 7593 7594 7574 7550 7559 6526 10389"/>
    </vehicle>
    <vehicle id="8357" depart="25223.34" departLane="free" departSpeed="max" fromTaz="10" toTaz="04">
        <route edges="8111 7539 6511 7542 7547 7548 7549 7550 7552 7553 7564 7543 7668 -11866 -11998 12051 12130 11902 12387 -12388 12108 11840 12396"/>
    </vehicle>
    <vehicle id="1140" depart="25223.89" departLane="free" departSpeed="max" fromTaz="01" toTaz="04">
        <route edges="10342.0 10423 10424 6046 7594 7574 7550 7552 7553 7564 7543 7668 -11866 -11998 12051 12130 11902 12387 -12388 12108 11840 12396"/>
    </vehicle>
    <vehicle id="6851" depart="25224.09" departLane="free" departSpeed="max" fromTaz="10" toTaz="03">
        <route edges="8111 7539 6511 7545 6526 10389"/>
    </vehicle>
    <vehicle id="1421" depart="25224.44" departLane="free" departSpeed="max" fromTaz="01" toTaz="12">
        <route edges="10342.0 10423 10424 6046 7594 7574 7550 7552 7553 7554 7555 7556 7548 7557 7578 7584 7571 7572 -7573"/>
    </vehicle>
    <vehicle id="5777" depart="25224.61" departLane="free" departSpeed="max" fromTaz="10" toTaz="03">
        <route edges="8111 7539 6511 7545 6526 10389"/>
    </vehicle>
    <vehicle id="6342" depart="25224.78" departLane="free" departSpeed="max" fromTaz="10" toTaz="03">
        <route edges="8111 7539 6511 7545 6526 10389"/>
    </vehicle>
    <vehicle id="3276" depart="25225.12" departLane="free" departSpeed="max" fromTaz="07" toTaz="11">
        <route edges="12527 7680 7681 7682 7673 7621 6124 7565 7796 5484 5485 7801 8030 8032 6119 6116 6515"/>
    </vehicle>
    <vehicle id="6809" depart="25225.33" departLane="free" departSpeed="max" fromTaz="10" toTaz="03">
        <route edges="8111 7539 6511 7545 6526 10389"/>
    </vehicle>
    <vehicle id="3767" depart="25225.71" departLane="free" departSpeed="max" fromTaz="09" toTaz="00">
        <route edges="6483 6539 6123 7537 7540 7539 6511 7542 7547 7548 7557 7578 7579 7580 7581 6044 6039 7359"/>
    </vehicle>
    <vehicle id="3602" depart="25225.74" departLane="free" departSpeed="max" fromTaz="08" toTaz="13">
        <route edges="7760 7780 -7770 8101 -8103 -2436 3721 7690 7682 7673 7621 6124 7560 7555 7556 7548 7557 7578 7579 7580 7581 7592 7596 6208 7595 1286"/>
    </vehicle>
    <vehicle id="1761" depart="25225.86" departLane="free" departSpeed="max" fromTaz="03" toTaz="10">
        <route edges="6522 6489 5485 7801 8030 8031"/>
    </vehicle>
    <vehicle id="5314" depart="25226.94" departLane="free" departSpeed="max" fromTaz="10" toTaz="03">
        <route edges="8111 7539 6511 7545 6526 10389"/>
    </vehicle>
    <vehicle id="3407" depart="25227.26" departLane="free" departSpeed="max" fromTaz="08" toTaz="00">
        <route edges="7760 7780 -7770 8101 -8103 -2436 3721 7690 7682 7673 7621 6124 7560 7555 7556 7548 7557 7578 7584 7571 7569 7570 7576 7577 7587 7588 7592 7596 6208 7597 7598 7600 7359"/>
    </vehicle>
    <vehicle id="6355" depart="25227.62" departLane="free" departSpeed="max" fromTaz="10" toTaz="03">
        <route edges="8111 7539 6511 7545 6526 10389"/>
    </vehicle>
    <vehicle id="8620" depart="25227.79" departLane="free" departSpeed="max" fromTaz="10" toTaz="13">
        <route edges="8111 7539 6511 7542 7558 7578 7584 7571 7569 7570 7576 7577 7587 7588 7592 7596 6208 7595 1286"/>
    </vehicle>
    <vehicle id="5429" depart="25228.04" departLane="free" departSpeed="max" fromTaz="10" toTaz="03">
        <route edges="8111 7539 6511 7545 6526 10389"/>
    </vehicle>
    <vehicle id="7009" depart="25228.74" departLane="free" departSpeed="max" fromTaz="10" toTaz="03">
        <route edges="8111 7539 6511 7545 6526 10389"/>
    </vehicle>
    <vehicle id="5377" depart="25229.38" departLane="free" departSpeed="max" fromTaz="10" toTaz="03">
        <route edges="8111 7539 6511 7545 6526 10389"/>
    </vehicle>
    <vehicle id="7169" depart="25229.51" departLane="free" departSpeed="max" fromTaz="10" toTaz="03">
        <route edges="8111 7539 6511 7545 6526 10389"/>
    </vehicle>
    <vehicle id="8777" depart="25229.56" departLane="free" departSpeed="max" fromTaz="11" toTaz="00">
        <route edges="5349 7523 7537 7538 5323 6513 7546 6511 7542 7558 7578 7579 7580 7581 7592 7596 6208 7597 7598 7600 7359"/>
    </vehicle>
    <vehicle id="3524" depart="25229.89" departLane="free" departSpeed="max" fromTaz="08" toTaz="09">
        <route edges="7760 7780 7778 7761 7793 7794 7800 5305 7802 8030 8032 7531 7533"/>
    </vehicle>
    <vehicle id="2504" depart="25230.03" departLane="free" departSpeed="max" fromTaz="05" toTaz="12">
        <route edges="12004 11800 12020 11998 11866 7669 7544 7671 7684 7685 7686 7687 7680 7681 7682 7673 7621 6124 7560 7555 7556 7548 7557 7578 7584 7571 7572 -7573"/>
    </vehicle>
    <vehicle id="6504" depart="25231.39" departLane="free" departSpeed="max" fromTaz="10" toTaz="03">
        <route edges="8111 7539 6511 7545 6526 10389"/>
    </vehicle>
    <vehicle id="1380" depart="25232.14" departLane="free" departSpeed="max" fromTaz="01" toTaz="11">
        <route edges="10423 10424 6046 7594 7574 7550 7552 7553 7554 7555 7561 7796 5484 5485 7801 8030 8032 6119 6116 6515"/>
    </vehicle>
    <vehicle id="1964" depart="25232.84" departLane="free" departSpeed="max" fromTaz="04" toTaz="02">
        <route edges="12405 11880 12262 12388 -12387 11784 11923 11800 12020 11998 11866 7669 7544 7671 7684 7685 7686 7687 7680 7681 7682 7673 7621 6124 7560 7555 7556 7548 7549 7550 7559 6526 10391 10392 10466 10467 10393 10394"/>
    </vehicle>
    <vehicle id="674" depart="25233.54" departLane="free" departSpeed="max" fromTaz="00" toTaz="06">
        <route edges="7617 6040 7593 7594 7574 7550 7552 7553 7564 7543 7670 7544 7672 11548"/>
    </vehicle>
    <vehicle id="7162" depart="25234.38" departLane="free" departSpeed="max" fromTaz="10" toTaz="03">
        <route edges="8111 7539 6511 7545 6526 10389"/>
    </vehicle>
    <vehicle id="1738" depart="25235.00" departLane="free" departSpeed="max" fromTaz="03" toTaz="10">
        <route edges="6522 6489 5485 7801 8030 8031"/>
    </vehicle>
    <vehicle id="6440" depart="25235.30" departLane="free" departSpeed="max" fromTaz="10" toTaz="03">
        <route edges="8112 7535 6123 7537 7538 5323 6513 7546 6511 7545 6526 10389"/>
    </vehicle>
    <vehicle id="4815" depart="25235.81" departLane="free" departSpeed="max" fromTaz="10" toTaz="02">
        <route edges="8111 7539 6511 7545 6526 10391 10392 10466 10467 10393 10394"/>
    </vehicle>
    <vehicle id="3640" depart="25235.90" departLane="free" departSpeed="max" fromTaz="09" toTaz="00">
        <route edges="6483 6539 6123 7537 7538 5323 6513 7546 6511 7542 7558 7578 7584 7571 7569 7570 7576 7577 7587 7588 7592 7596 6208 7597 7598 7600 7359"/>
    </vehicle>
    <vehicle id="2986" depart="25236.22" departLane="free" departSpeed="max" fromTaz="07" toTaz="00">
        <route edges="12527 7680 7681 7682 7673 7621 6124 7560 7555 7556 7548 7557 7578 7584 7571 7569 7570 7576 7577 7587 7588 7592 7596 6208 7597 7598 7600 7359"/>
    </vehicle>
    <vehicle id="1284" depart="25236.35" departLane="free" departSpeed="max" fromTaz="01" toTaz="07">
        <route edges="10423 10424 6046 7594 7574 7550 7552 7553 7564 7543 7670 7544 7671 7684 7685 7686 7688 7677"/>
    </vehicle>
    <vehicle id="6322" depart="25236.51" departLane="free" departSpeed="max" fromTaz="10" toTaz="03">
        <route edges="8111 7539 6511 7545 6526 10389"/>
    </vehicle>
    <vehicle id="198" depart="25236.86" departLane="free" departSpeed="max" fromTaz="00" toTaz="03">
        <route edges="7617 6040 7593 7594 7574 7550 7559 6526 10389"/>
    </vehicle>
    <vehicle id="9042" depart="25237.10" departLane="free" departSpeed="max" fromTaz="12" toTaz="00">
        <route edges="1153 7575 7570 7585 7580 7581 6044 6039 7359"/>
    </vehicle>
    <vehicle id="2350" depart="25237.22" departLane="free" departSpeed="max" fromTaz="05" toTaz="02">
        <route edges="12004 11800 12020 11998 11866 7669 7544 7671 7684 7685 7686 7687 7680 7681 7682 7673 7621 6124 7560 7555 7556 7548 7549 7550 7559 6526 10391 10392 10466 10467 10393 10394"/>
    </vehicle>
    <vehicle id="7845" depart="25237.47" departLane="free" departSpeed="max" fromTaz="10" toTaz="03">
        <route edges="8111 7539 6511 7545 6526 10389"/>
    </vehicle>
    <vehicle id="2954" depart="25237.59" departLane="free" departSpeed="max" fromTaz="07" toTaz="00">
        <route edges="12527 7680 7681 7682 7673 7621 6124 7560 7555 7556 7548 7557 7578 7579 7580 7581 7592 7596 6208 7597 7598 7600 7359"/>
    </vehicle>
    <vehicle id="526" depart="25237.70" departLane="free" departSpeed="max" fromTaz="00" toTaz="03">
        <route edges="7618 6045 7596 6208 7597 7603 7593 7594 7574 7550 7559 6526 10389"/>
    </vehicle>
    <vehicle id="5119" depart="25237.86" departLane="free" departSpeed="max" fromTaz="10" toTaz="03">
        <route edges="8111 7539 6511 7545 6526 10389"/>
    </vehicle>
    <vehicle id="7239" depart="25238.43" departLane="free" departSpeed="max" fromTaz="10" toTaz="03">
        <route edges="8111 7539 6511 7545 6526 10389"/>
    </vehicle>
    <vehicle id="8456" depart="25238.55" departLane="free" departSpeed="max" fromTaz="10" toTaz="11">
        <route edges="8111 7539 6511 7542 7547 7548 7549 7550 7552 7553 7554 7555 7561 7796 5484 5485 7801 8030 8032 6119 6116 6515"/>
    </vehicle>
    <vehicle id="1874" depart="25238.67" departLane="free" departSpeed="max" fromTaz="04" toTaz="00">
        <route edges="12405 11880 12262 12388 -12387 11784 11923 11800 12020 11998 11866 7669 7544 7671 7684 7685 7686 7687 7680 7681 7682 7673 7621 6124 7560 7555 7556 7548 7557 7578 7579 7580 7581 7592 7596 6208 7597 7598 7600 7359"/>
    </vehicle>
    <vehicle id="142" depart="25239.03" departLane="free" departSpeed="max" fromTaz="00" toTaz="02">
        <route edges="7617 6040 7593 7594 7566 -6487 5652 10393 10394"/>
    </vehicle>
    <vehicle id="8935" depart="25240.01" departLane="free" departSpeed="max" fromTaz="11" toTaz="03">
        <route edges="5349 7523 7537 7538 5323 6513 7546 6511 7545 6526 10389"/>
    </vehicle>
    <vehicle id="5523" depart="25242.04" departLane="free" departSpeed="max" fromTaz="10" toTaz="03">
        <route edges="8111 7539 6511 7545 6526 10389"/>
    </vehicle>
    <vehicle id="4390" depart="25242.17" departLane="free" departSpeed="max" fromTaz="10" toTaz="00">
        <route edges="8111 7539 6511 7542 7558 7578 7584 7571 7569 7570 7576 7577 7587 7588 7592 7596 6208 7597 7598 7600 7359"/>
    </vehicle>
    <vehicle id="3344" depart="25242.24" departLane="free" departSpeed="max" fromTaz="07" toTaz="12">
        <route edges="12527 7680 7681 7682 7673 7621 6124 7560 7555 7556 7548 7557 7578 7584 7571 7572 -7573"/>
    </vehicle>
    <vehicle id="3592" depart="25242.31" departLane="free" departSpeed="max" fromTaz="08" toTaz="13">
        <route edges="7760 -7774 -7749 -2436 3721 7690 7682 7673 7621 6124 7560 7555 7556 7548 7557 7578 7579 7580 7581 7592 7596 6208 7595 1286"/>
    </vehicle>
    <vehicle id="3650" depart="25242.53" departLane="free" departSpeed="max" fromTaz="09" toTaz="00">
        <route edges="6483 6539 6123 7537 7540 7539 6511 7542 7547 7548 7557 7578 7579 7580 7581 6044 6039 7359"/>
    </vehicle>
    <vehicle id="6394" depart="25242.57" departLane="free" departSpeed="max" fromTaz="10" toTaz="03">
        <route edges="8111 7539 6511 7545 6526 10389"/>
    </vehicle>
    <vehicle id="4693" depart="25243.31" departLane="free" departSpeed="max" fromTaz="10" toTaz="02">
        <route edges="8112 7535 6123 7537 7538 5323 6513 7546 6511 7545 6526 10391 10392 10466 10467 10393 10394"/>
    </vehicle>
    <vehicle id="7954" depart="25243.53" departLane="free" departSpeed="max" fromTaz="10" toTaz="03">
        <route edges="8111 7539 6511 7545 6526 10389"/>
    </vehicle>
    <vehicle id="9146" depart="25243.54" departLane="free" departSpeed="max" fromTaz="12" toTaz="01">
        <route edges="1153 7575 7570 7585 7580 7591 6041 10410"/>
    </vehicle>
    <vehicle id="6312" depart="25244.44" departLane="free" departSpeed="max" fromTaz="10" toTaz="03">
        <route edges="8111 7539 6511 7545 6526 10389"/>
    </vehicle>
    <vehicle id="1409" depart="25244.99" departLane="free" departSpeed="max" fromTaz="01" toTaz="12">
        <route edges="10423 10424 6046 7594 7574 7550 7552 7553 7554 7555 7556 7548 7557 7578 7584 7571 7572 -7573"/>
    </vehicle>
    <vehicle id="2745" depart="25245.59" departLane="free" departSpeed="max" fromTaz="06" toTaz="07">
        <route edges="11597 12338 7676 7677"/>
    </vehicle>
    <vehicle id="4665" depart="25246.74" departLane="free" departSpeed="max" fromTaz="10" toTaz="02">
        <route edges="8111 7539 6511 7545 6526 10391 10392 10466 10467 10393 10394"/>
    </vehicle>
    <vehicle id="3734" depart="25246.80" departLane="free" departSpeed="max" fromTaz="09" toTaz="00">
        <route edges="6483 6539 6123 7537 7538 5323 6513 7546 6511 7542 7558 7578 7579 7580 7581 7592 7596 6208 7597 7598 7600 7359"/>
    </vehicle>
    <vehicle id="2833" depart="25246.85" departLane="free" departSpeed="max" fromTaz="06" toTaz="11">
        <route edges="11597 12338 7675 7686 7687 7680 7681 7682 7673 7621 6124 7560 7555 7561 7796 5484 5485 7801 8030 8032 6119 6116 6515"/>
    </vehicle>
    <vehicle id="571" depart="25246.90" departLane="free" departSpeed="max" fromTaz="00" toTaz="03">
        <route edges="7617 6040 7593 7594 7574 7550 7559 6526 10389"/>
    </vehicle>
    <vehicle id="3624" depart="25247.47" departLane="free" departSpeed="max" fromTaz="09" toTaz="00">
        <route edges="6483 6539 6123 7537 7540 7539 6511 7542 7547 7548 7557 7578 7579 7580 7581 6044 6039 7359"/>
    </vehicle>
    <vehicle id="771" depart="25247.95" departLane="free" departSpeed="max" fromTaz="00" toTaz="06">
        <route edges="7617 6040 7593 7594 7574 7550 7552 7553 7564 7543 7670 7544 7671 7684 7674 11548"/>
    </vehicle>
    <vehicle id="9208" depart="25248.04" departLane="free" departSpeed="max" fromTaz="12" toTaz="13">
        <route edges="1153 7575 7570 7576 7577 7587 7588 7592 7596 6208 7595 1286"/>
    </vehicle>
    <vehicle id="5945" depart="25248.47" departLane="free" departSpeed="max" fromTaz="10" toTaz="03">
        <route edges="8111 7539 6511 7545 6526 10389"/>
    </vehicle>
    <vehicle id="5799" depart="25248.54" departLane="free" departSpeed="max" fromTaz="10" toTaz="03">
        <route edges="8111 7539 6511 7545 6526 10389"/>
    </vehicle>
    <vehicle id="7688" depart="25248.92" departLane="free" departSpeed="max" fromTaz="10" toTaz="03">
        <route edges="8111 7539 6511 7545 6526 10389"/>
    </vehicle>
    <vehicle id="1239" depart="25249.05" departLane="free" departSpeed="max" fromTaz="01" toTaz="07">
        <route edges="10342.0 10423 10424 6046 7594 7574 7550 7552 7553 7564 7543 7670 7544 7671 7684 7685 7686 7688 7677"/>
    </vehicle>
    <vehicle id="4861" depart="25249.06" departLane="free" departSpeed="max" fromTaz="10" toTaz="03">
        <route edges="8111 7539 6511 7545 6526 10389"/>
    </vehicle>
    <vehicle id="4397" depart="25249.85" departLane="free" departSpeed="max" fromTaz="10" toTaz="00">
        <route edges="8111 7539 6511 7542 7558 7578 7579 7580 7581 7592 7596 6208 7597 7598 7600 7359"/>
    </vehicle>
    <vehicle id="2837" depart="25249.86" departLane="free" departSpeed="max" fromTaz="06" toTaz="11">
        <route edges="11597 12338 7675 7686 7687 7680 7681 7682 7673 7621 6124 7560 7555 7561 7796 5484 5485 7801 8030 8032 6119 6116 6515"/>
    </vehicle>