<routes xmlns:xsi="http://www.w3.org/2001/XMLSchema-instance" xsi:noNamespaceSchemaLocation="http://sumo.dlr.de/xsd/routes_file.xsd">
    <trip depart="25200.79" departLane="free" departSpeed="max" fromTaz="10" id="63" toTaz="00" />
    <trip depart="25201.27" departLane="free" departSpeed="max" fromTaz="10" id="7387" toTaz="03" />
    <trip depart="25201.83" departLane="free" departSpeed="max" fromTaz="05" id="1162" toTaz="02" />
    <trip depart="25201.88" departLane="free" departSpeed="max" fromTaz="01" id="3167" toTaz="02" />
    <trip depart="25202.83" departLane="free" departSpeed="max" fromTaz="07" id="283" toTaz="00" />
    <trip depart="25203.42" departLane="free" departSpeed="max" fromTaz="10" id="7758" toTaz="03" />
    <trip depart="25203.85" departLane="free" departSpeed="max" fromTaz="10" id="8402" toTaz="02" />
    <trip depart="25204.11" departLane="free" departSpeed="max" fromTaz="08" id="8595" toTaz="03" />
    <trip depart="25204.33" departLane="free" departSpeed="max" fromTaz="09" id="3003" toTaz="00" />
    <trip depart="25204.77" departLane="free" departSpeed="max" fromTaz="09" id="519" toTaz="10" />
    <trip depart="25204.80" departLane="free" departSpeed="max" fromTaz="09" id="3852" toTaz="01" />
    <trip depart="25204.89" departLane="free" departSpeed="max" fromTaz="09" id="9013" toTaz="11" />
    <trip depart="25205.67" departLane="free" departSpeed="max" fromTaz="10" id="7388" toTaz="03" />
    <trip depart="25206.04" departLane="free" departSpeed="max" fromTaz="00" id="4492" toTaz="03" />
    <trip depart="25206.68" departLane="free" departSpeed="max" fromTaz="10" id="5933" toTaz="03" />
    <trip depart="25207.04" departLane="free" departSpeed="max" fromTaz="06" id="8970" toTaz="13" />
    <trip depart="25207.36" departLane="free" departSpeed="max" fromTaz="04" id="3039" toTaz="01" />
    <trip depart="25207.63" departLane="free" departSpeed="max" fromTaz="10" id="5425" toTaz="03" />
    <trip depart="25208.70" departLane="free" departSpeed="max" fromTaz="11" id="4104" toTaz="01" />
    <trip depart="25208.97" departLane="free" departSpeed="max" fromTaz="10" id="5710" toTaz="03" />
    <trip depart="25209.39" departLane="free" departSpeed="max" fromTaz="10" id="7047" toTaz="03" />
    <trip depart="25210.87" departLane="free" departSpeed="max" fromTaz="04" id="2237" toTaz="08" />
    <trip depart="25211.00" departLane="free" departSpeed="max" fromTaz="12" id="2995" toTaz="01" />
    <trip depart="25211.03" departLane="free" departSpeed="max" fromTaz="08" id="8817" toTaz="02" />
    <trip depart="25211.12" departLane="free" departSpeed="max" fromTaz="06" id="245" toTaz="12" />
    <trip depart="25211.33" departLane="free" departSpeed="max" fromTaz="00" id="2629" toTaz="06" />
    <trip depart="25211.57" departLane="free" departSpeed="max" fromTaz="07" id="2359" toTaz="11" />
    <trip depart="25211.71" departLane="free" departSpeed="max" fromTaz="03" id="4204" toTaz="02" />
    <trip depart="25211.86" departLane="free" departSpeed="max" fromTaz="10" id="6469" toTaz="03" />
    <trip depart="25212.00" departLane="free" departSpeed="max" fromTaz="05" id="8771" toTaz="10" />
    <trip depart="25212.17" departLane="free" departSpeed="max" fromTaz="08" id="4721" toTaz="03" />
    <trip depart="25213.54" departLane="free" departSpeed="max" fromTaz="09" id="8630" toTaz="05" />
    <trip depart="25214.71" departLane="free" departSpeed="max" fromTaz="07" id="1993" toTaz="11" />
    <trip depart="25215.55" departLane="free" departSpeed="max" fromTaz="10" id="6866" toTaz="03" />
    <trip depart="25215.74" departLane="free" departSpeed="max" fromTaz="10" id="6814" toTaz="03" />
    <trip depart="25215.75" departLane="free" departSpeed="max" fromTaz="10" id="6201" toTaz="03" />
    <trip depart="25216.08" departLane="free" departSpeed="max" fromTaz="10" id="3842" toTaz="00" />
    <trip depart="25216.72" departLane="free" departSpeed="max" fromTaz="03" id="88" toTaz="00" />
    <trip depart="25218.30" departLane="free" departSpeed="max" fromTaz="09" id="4578" toTaz="13" />
    <trip depart="25218.38" departLane="free" departSpeed="max" fromTaz="01" id="9" toTaz="02" />
    <trip depart="25218.64" departLane="free" departSpeed="max" fromTaz="07" id="4602" toTaz="13" />
    <trip depart="25218.68" departLane="free" departSpeed="max" fromTaz="10" id="6728" toTaz="03" />
    <trip depart="25218.85" departLane="free" departSpeed="max" fromTaz="01" id="2539" toTaz="12" />
    <trip depart="25218.86" departLane="free" departSpeed="max" fromTaz="05" id="3433" toTaz="08" />
    <trip depart="25218.86" departLane="free" departSpeed="max" fromTaz="01" id="8482" toTaz="04" />
    <trip depart="25218.94" departLane="free" departSpeed="max" fromTaz="06" id="4507" toTaz="03" />
    <trip depart="25218.97" departLane="free" departSpeed="max" fromTaz="08" id="748" toTaz="03" />
    <trip depart="25219.12" departLane="free" departSpeed="max" fromTaz="09" id="9112" toTaz="00" />
    <trip depart="25219.60" departLane="free" departSpeed="max" fromTaz="10" id="412" toTaz="02" />
    <trip depart="25219.62" departLane="free" departSpeed="max" fromTaz="10" id="4873" toTaz="03" />
    <trip depart="25219.77" departLane="free" departSpeed="max" fromTaz="03" id="950" toTaz="09" />
    <trip depart="25220.38" departLane="free" departSpeed="max" fromTaz="07" id="8737" toTaz="13" />
    <trip depart="25221.49" departLane="free" departSpeed="max" fromTaz="10" id="7916" toTaz="03" />
    <trip depart="25221.76" departLane="free" departSpeed="max" fromTaz="06" id="1588" toTaz="11" />
    <trip depart="25222.42" departLane="free" departSpeed="max" fromTaz="10" id="4614" toTaz="02" />
    <trip depart="25222.68" departLane="free" departSpeed="max" fromTaz="10" id="8006" toTaz="03" />
    <trip depart="25222.69" departLane="free" departSpeed="max" fromTaz="06" id="3020" toTaz="03" />
    <trip depart="25222.82" departLane="free" departSpeed="max" fromTaz="09" id="1390" toTaz="12" />
    <trip depart="25223.05" departLane="free" departSpeed="max" fromTaz="09" id="391" toTaz="11" />
    <trip depart="25223.34" departLane="free" departSpeed="max" fromTaz="01" id="8357" toTaz="12" />
    <trip depart="25223.89" departLane="free" departSpeed="max" fromTaz="01" id="1140" toTaz="05" />
    <trip depart="25224.09" departLane="free" departSpeed="max" fromTaz="10" id="6851" toTaz="03" />
    <trip depart="25224.44" departLane="free" departSpeed="max" fromTaz="06" id="1421" toTaz="01" />
    <trip depart="25224.61" departLane="free" departSpeed="max" fromTaz="10" id="5777" toTaz="03" />
    <trip depart="25224.78" departLane="free" departSpeed="max" fromTaz="10" id="6342" toTaz="03" />
    <trip depart="25225.12" departLane="free" departSpeed="max" fromTaz="06" id="3276" toTaz="03" />
    <trip depart="25225.33" departLane="free" departSpeed="max" fromTaz="10" id="6809" toTaz="03" />
    <trip depart="25225.71" departLane="free" departSpeed="max" fromTaz="10" id="3767" toTaz="00" />
    <trip depart="25225.74" departLane="free" departSpeed="max" fromTaz="09" id="3602" toTaz="00" />
    <trip depart="25225.86" departLane="free" departSpeed="max" fromTaz="03" id="1761" toTaz="10" />
    <trip depart="25226.94" departLane="free" departSpeed="max" fromTaz="10" id="5314" toTaz="03" />
    <trip depart="25227.26" departLane="free" departSpeed="max" fromTaz="04" id="3407" toTaz="02" />
    <trip depart="25227.62" departLane="free" departSpeed="max" fromTaz="10" id="6355" toTaz="03" />
    <trip depart="25227.79" departLane="free" departSpeed="max" fromTaz="06" id="8620" toTaz="03" />
    <trip depart="25228.04" departLane="free" departSpeed="max" fromTaz="10" id="5429" toTaz="03" />
    <trip depart="25228.74" departLane="free" departSpeed="max" fromTaz="10" id="7009" toTaz="03" />
    <trip depart="25229.38" departLane="free" departSpeed="max" fromTaz="10" id="5377" toTaz="03" />
    <trip depart="25229.51" departLane="free" departSpeed="max" fromTaz="10" id="7169" toTaz="03" />
    <trip depart="25229.56" departLane="free" departSpeed="max" fromTaz="01" id="8777" toTaz="02" />
    <trip depart="25229.89" departLane="free" departSpeed="max" fromTaz="00" id="3524" toTaz="03" />
    <trip depart="25230.03" departLane="free" departSpeed="max" fromTaz="03" id="2504" toTaz="02" />
    <trip depart="25231.39" departLane="free" departSpeed="max" fromTaz="10" id="6504" toTaz="03" />
    <trip depart="25232.14" departLane="free" departSpeed="max" fromTaz="12" id="1380" toTaz="13" />
    <trip depart="25232.84" departLane="free" departSpeed="max" fromTaz="06" id="1964" toTaz="01" />
    <trip depart="25233.54" departLane="free" departSpeed="max" fromTaz="01" id="674" toTaz="02" />
    <trip depart="25234.38" departLane="free" departSpeed="max" fromTaz="10" id="7162" toTaz="03" />
    <trip depart="25235.00" departLane="free" departSpeed="max" fromTaz="03" id="1738" toTaz="10" />
    <trip depart="25235.30" departLane="free" departSpeed="max" fromTaz="10" id="6440" toTaz="03" />
    <trip depart="25235.81" departLane="free" departSpeed="max" fromTaz="03" id="4815" toTaz="12" />
    <trip depart="25235.90" departLane="free" departSpeed="max" fromTaz="10" id="3640" toTaz="02" />
    <trip depart="25236.22" departLane="free" departSpeed="max" fromTaz="10" id="2986" toTaz="07" />
    <trip depart="25236.35" departLane="free" departSpeed="max" fromTaz="00" id="1284" toTaz="06" />
    <trip depart="25236.51" departLane="free" departSpeed="max" fromTaz="10" id="6322" toTaz="03" />
    <trip depart="25236.86" departLane="free" departSpeed="max" fromTaz="12" id="198" toTaz="00" />
    <trip depart="25237.10" departLane="free" departSpeed="max" fromTaz="07" id="9042" toTaz="09" />
    <trip depart="25237.22" departLane="free" departSpeed="max" fromTaz="04" id="2350" toTaz="00" />
    <trip depart="25237.47" departLane="free" departSpeed="max" fromTaz="10" id="7845" toTaz="03" />
    <trip depart="25237.59" departLane="free" departSpeed="max" fromTaz="07" id="2954" toTaz="09" />
    <trip depart="25237.70" departLane="free" departSpeed="max" fromTaz="03" id="526" toTaz="09" />
    <trip depart="25237.86" departLane="free" departSpeed="max" fromTaz="10" id="5119" toTaz="03" />
    <trip depart="25238.43" departLane="free" departSpeed="max" fromTaz="10" id="7239" toTaz="03" />
    <trip depart="25238.55" departLane="free" departSpeed="max" fromTaz="09" id="8456" toTaz="11" />
    <trip depart="25238.67" departLane="free" departSpeed="max" fromTaz="06" id="1874" toTaz="10" />
    <trip depart="25239.03" departLane="free" departSpeed="max" fromTaz="07" id="142" toTaz="11" />
    <trip depart="25240.01" departLane="free" departSpeed="max" fromTaz="11" id="8935" toTaz="10" />
    <trip depart="25242.04" departLane="free" departSpeed="max" fromTaz="10" id="5523" toTaz="03" />
    <trip depart="25242.17" departLane="free" departSpeed="max" fromTaz="06" id="4390" toTaz="10" />
    <trip depart="25242.24" departLane="free" departSpeed="max" fromTaz="05" id="3344" toTaz="00" />
    <trip depart="25242.31" departLane="free" departSpeed="max" fromTaz="10" id="3592" toTaz="11" />
    <trip depart="25242.53" departLane="free" departSpeed="max" fromTaz="01" id="3650" toTaz="13" />
    <trip depart="25242.57" departLane="free" departSpeed="max" fromTaz="10" id="6394" toTaz="03" />
    <trip depart="25243.31" departLane="free" departSpeed="max" fromTaz="05" id="4693" toTaz="02" />
    <trip depart="25243.53" departLane="free" departSpeed="max" fromTaz="10" id="7954" toTaz="03" />
    <trip depart="25243.54" departLane="free" departSpeed="max" fromTaz="00" id="9146" toTaz="09" />
    <trip depart="25244.44" departLane="free" departSpeed="max" fromTaz="10" id="6312" toTaz="03" />
    <trip depart="25244.99" departLane="free" departSpeed="max" fromTaz="09" id="1409" toTaz="10" />
    <trip depart="25245.59" departLane="free" departSpeed="max" fromTaz="07" id="2745" toTaz="13" />
    <trip depart="25246.74" departLane="free" departSpeed="max" fromTaz="01" id="4665" toTaz="02" />
    <trip depart="25246.80" departLane="free" departSpeed="max" fromTaz="06" id="3734" toTaz="03" />
    <trip depart="25246.85" departLane="free" departSpeed="max" fromTaz="10" id="2833" toTaz="04" />
    <trip depart="25246.90" departLane="free" departSpeed="max" fromTaz="10" id="571" toTaz="02" />
    <trip depart="25247.47" departLane="free" departSpeed="max" fromTaz="10" id="3624" toTaz="13" />
    <trip depart="25247.95" departLane="free" departSpeed="max" fromTaz="00" id="771" toTaz="03" />
    <trip depart="25248.04" departLane="free" departSpeed="max" fromTaz="00" id="9208" toTaz="06" />
    <trip depart="25248.47" departLane="free" departSpeed="max" fromTaz="10" id="5945" toTaz="03" />
    <trip depart="25248.54" departLane="free" departSpeed="max" fromTaz="10" id="5799" toTaz="03" />
    <trip depart="25248.92" departLane="free" departSpeed="max" fromTaz="10" id="7688" toTaz="03" />
    <trip depart="25249.05" departLane="free" departSpeed="max" fromTaz="10" id="1239" toTaz="02" />
    <trip depart="25249.06" departLane="free" departSpeed="max" fromTaz="10" id="4861" toTaz="03" />
    <trip depart="25249.85" departLane="free" departSpeed="max" fromTaz="07" id="4397" toTaz="05" />
    <trip depart="25249.86" departLane="free" departSpeed="max" fromTaz="03" id="2837" toTaz="06" />
    <trip depart="25250.02" departLane="free" departSpeed="max" fromTaz="07" id="8530" toTaz="13" />
    <trip depart="25250.43" departLane="free" departSpeed="max" fromTaz="10" id="4919" toTaz="03" />
    <trip depart="25250.69" departLane="free" departSpeed="max" fromTaz="10" id="3999" toTaz="02" />
    <trip depart="25251.33" departLane="free" departSpeed="max" fromTaz="11" id="1439" toTaz="08" />
    <trip depart="25253.26" departLane="free" departSpeed="max" fromTaz="10" id="3537" toTaz="11" />
    <trip depart="25253.54" departLane="free" departSpeed="max" fromTaz="01" id="8918" toTaz="02" />
    <trip depart="25253.56" departLane="free" departSpeed="max" fromTaz="10" id="3422" toTaz="08" />
    <trip depart="25253.94" departLane="free" departSpeed="max" fromTaz="01" id="1664" toTaz="11" />
    <trip depart="25254.11" departLane="free" departSpeed="max" fromTaz="10" id="4870" toTaz="03" />
    <trip depart="25254.38" departLane="free" departSpeed="max" fromTaz="10" id="6301" toTaz="03" />
    <trip depart="25254.47" departLane="free" departSpeed="max" fromTaz="00" id="543" toTaz="03" />
    <trip depart="25255.12" departLane="free" departSpeed="max" fromTaz="06" id="1934" toTaz="04" />
    <trip depart="25255.54" departLane="free" departSpeed="max" fromTaz="10" id="4903" toTaz="03" />
    <trip depart="25255.65" departLane="free" departSpeed="max" fromTaz="00" id="5" toTaz="03" />
    <trip depart="25255.81" departLane="free" departSpeed="max" fromTaz="03" id="2767" toTaz="06" />
    <trip depart="25256.04" departLane="free" departSpeed="max" fromTaz="11" id="3365" toTaz="12" />
    <trip depart="25256.27" departLane="free" departSpeed="max" fromTaz="06" id="1856" toTaz="03" />
    <trip depart="25257.81" departLane="free" departSpeed="max" fromTaz="10" id="6872" toTaz="03" />
    <trip depart="25258.17" departLane="free" departSpeed="max" fromTaz="10" id="7504" toTaz="03" />
    <trip depart="25258.83" departLane="free" departSpeed="max" fromTaz="01" id="3320" toTaz="02" />
    <trip depart="25258.89" departLane="free" departSpeed="max" fromTaz="10" id="6711" toTaz="03" />
    <trip depart="25259.01" departLane="free" departSpeed="max" fromTaz="10" id="3641" toTaz="04" />
    <trip depart="25259.07" departLane="free" departSpeed="max" fromTaz="01" id="1047" toTaz="02" />
    <trip depart="25259.85" departLane="free" departSpeed="max" fromTaz="03" id="1423" toTaz="09" />
    <trip depart="25260.66" departLane="free" departSpeed="max" fromTaz="07" id="3564" toTaz="11" />
    <trip depart="25261.35" departLane="free" departSpeed="max" fromTaz="01" id="8862" toTaz="02" />
    <trip depart="25262.31" departLane="free" departSpeed="max" fromTaz="10" id="5898" toTaz="03" />
    <trip depart="25262.45" departLane="free" departSpeed="max" fromTaz="10" id="5560" toTaz="03" />
    <trip depart="25263.06" departLane="free" departSpeed="max" fromTaz="09" id="8745" toTaz="00" />
    <trip depart="25263.18" departLane="free" departSpeed="max" fromTaz="10" id="1150" toTaz="02" />
    <trip depart="25263.60" departLane="free" departSpeed="max" fromTaz="10" id="7043" toTaz="03" />
    <trip depart="25264.13" departLane="free" departSpeed="max" fromTaz="07" id="2166" toTaz="03" />
    <trip depart="25264.28" departLane="free" departSpeed="max" fromTaz="10" id="6813" toTaz="03" />
    <trip depart="25265.19" departLane="free" departSpeed="max" fromTaz="10" id="7613" toTaz="03" />
    <trip depart="25265.23" departLane="free" departSpeed="max" fromTaz="06" id="1855" toTaz="11" />
    <trip depart="25265.71" departLane="free" departSpeed="max" fromTaz="10" id="6197" toTaz="03" />
    <trip depart="25266.44" departLane="free" departSpeed="max" fromTaz="04" id="8397" toTaz="07" />
    <trip depart="25266.73" departLane="free" departSpeed="max" fromTaz="03" id="1548" toTaz="02" />
    <trip depart="25266.83" departLane="free" departSpeed="max" fromTaz="10" id="5019" toTaz="03" />
    <trip depart="25266.85" departLane="free" departSpeed="max" fromTaz="00" id="2388" toTaz="09" />
    <trip depart="25267.39" departLane="free" departSpeed="max" fromTaz="05" id="3917" toTaz="00" />
    <trip depart="25267.70" departLane="free" departSpeed="max" fromTaz="08" id="8577" toTaz="03" />
    <trip depart="25268.69" departLane="free" departSpeed="max" fromTaz="01" id="1966" toTaz="10" />
    <trip depart="25269.03" departLane="free" departSpeed="max" fromTaz="10" id="8188" toTaz="03" />
    <trip depart="25269.75" departLane="free" departSpeed="max" fromTaz="10" id="4978" toTaz="03" />
    <trip depart="25269.81" departLane="free" departSpeed="max" fromTaz="01" id="2400" toTaz="10" />
    <trip depart="25270.02" departLane="free" departSpeed="max" fromTaz="12" id="3456" toTaz="01" />
    <trip depart="25270.47" departLane="free" departSpeed="max" fromTaz="00" id="3966" toTaz="07" />
    <trip depart="25270.72" departLane="free" departSpeed="max" fromTaz="12" id="597" toTaz="00" />
    <trip depart="25270.96" departLane="free" departSpeed="max" fromTaz="10" id="5563" toTaz="03" />
    <trip depart="25271.48" departLane="free" departSpeed="max" fromTaz="10" id="7366" toTaz="03" />
    <trip depart="25271.75" departLane="free" departSpeed="max" fromTaz="11" id="3643" toTaz="12" />
    <trip depart="25272.15" departLane="free" departSpeed="max" fromTaz="10" id="6129" toTaz="03" />
    <trip depart="25272.86" departLane="free" departSpeed="max" fromTaz="04" id="1072" toTaz="06" />
    <trip depart="25273.19" departLane="free" departSpeed="max" fromTaz="10" id="7914" toTaz="03" />
    <trip depart="25273.45" departLane="free" departSpeed="max" fromTaz="05" id="4201" toTaz="09" />
    <trip depart="25273.58" departLane="free" departSpeed="max" fromTaz="10" id="6183" toTaz="03" />
    <trip depart="25273.65" departLane="free" departSpeed="max" fromTaz="10" id="7843" toTaz="03" />
    <trip depart="25273.98" departLane="free" departSpeed="max" fromTaz="04" id="587" toTaz="12" />
    <trip depart="25274.05" departLane="free" departSpeed="max" fromTaz="10" id="4035" toTaz="11" />
    <trip depart="25274.14" departLane="free" departSpeed="max" fromTaz="10" id="3005" toTaz="02" />
    <trip depart="25274.54" departLane="free" departSpeed="max" fromTaz="07" id="2524" toTaz="02" />
    <trip depart="25275.03" departLane="free" departSpeed="max" fromTaz="09" id="4386" toTaz="11" />
    <trip depart="25276.05" departLane="free" departSpeed="max" fromTaz="08" id="710" toTaz="04" />
    <trip depart="25276.07" departLane="free" departSpeed="max" fromTaz="10" id="7350" toTaz="03" />
    <trip depart="25276.46" departLane="free" departSpeed="max" fromTaz="10" id="5995" toTaz="03" />
    <trip depart="25276.76" departLane="free" departSpeed="max" fromTaz="07" id="551" toTaz="08" />
    <trip depart="25277.29" departLane="free" departSpeed="max" fromTaz="01" id="2351" toTaz="13" />
    <trip depart="25277.48" departLane="free" departSpeed="max" fromTaz="10" id="6715" toTaz="03" />
    <trip depart="25277.78" departLane="free" departSpeed="max" fromTaz="10" id="4094" toTaz="11" />
    <trip depart="25277.89" departLane="free" departSpeed="max" fromTaz="10" id="418" toTaz="02" />
    <trip depart="25279.19" departLane="free" departSpeed="max" fromTaz="10" id="6406" toTaz="03" />
    <trip depart="25280.18" departLane="free" departSpeed="max" fromTaz="10" id="2601" toTaz="00" />
    <trip depart="25280.40" departLane="free" departSpeed="max" fromTaz="00" id="4472" toTaz="07" />
    <trip depart="25281.49" departLane="free" departSpeed="max" fromTaz="10" id="5565" toTaz="03" />
    <trip depart="25281.62" departLane="free" departSpeed="max" fromTaz="01" id="111" toTaz="02" />
    <trip depart="25282.31" departLane="free" departSpeed="max" fromTaz="00" id="3388" toTaz="03" />
    <trip depart="25283.03" departLane="free" departSpeed="max" fromTaz="07" id="3572" toTaz="00" />
    <trip depart="25283.37" departLane="free" departSpeed="max" fromTaz="06" id="3131" toTaz="03" />
    <trip depart="25284.35" departLane="free" departSpeed="max" fromTaz="10" id="4886" toTaz="03" />
    <trip depart="25285.05" departLane="free" departSpeed="max" fromTaz="10" id="6976" toTaz="03" />
    <trip depart="25285.15" departLane="free" departSpeed="max" fromTaz="10" id="5984" toTaz="03" />
    <trip depart="25286.07" departLane="free" departSpeed="max" fromTaz="10" id="5676" toTaz="03" />
    <trip depart="25286.99" departLane="free" departSpeed="max" fromTaz="08" id="8469" toTaz="03" />
    <trip depart="25287.42" departLane="free" departSpeed="max" fromTaz="10" id="7931" toTaz="03" />
    <trip depart="25288.48" departLane="free" departSpeed="max" fromTaz="10" id="5748" toTaz="03" />
    <trip depart="25288.88" departLane="free" departSpeed="max" fromTaz="07" id="827" toTaz="04" />
    <trip depart="25289.14" departLane="free" departSpeed="max" fromTaz="11" id="1002" toTaz="03" />
    <trip depart="25289.32" departLane="free" departSpeed="max" fromTaz="09" id="687" toTaz="00" />
    <trip depart="25289.67" departLane="free" departSpeed="max" fromTaz="10" id="6888" toTaz="03" />
    <trip depart="25290.16" departLane="free" departSpeed="max" fromTaz="10" id="5755" toTaz="03" />
    <trip depart="25291.43" departLane="free" departSpeed="max" fromTaz="06" id="4445" toTaz="11" />
    <trip depart="25292.51" departLane="free" departSpeed="max" fromTaz="00" id="905" toTaz="03" />
    <trip depart="25292.68" departLane="free" departSpeed="max" fromTaz="10" id="9078" toTaz="02" />
    <trip depart="25292.85" departLane="free" departSpeed="max" fromTaz="10" id="3289" toTaz="02" />
    <trip depart="25293.55" departLane="free" departSpeed="max" fromTaz="10" id="6226" toTaz="03" />
    <trip depart="25294.16" departLane="free" departSpeed="max" fromTaz="00" id="1361" toTaz="06" />
    <trip depart="25294.22" departLane="free" departSpeed="max" fromTaz="12" id="2661" toTaz="00" />
    <trip depart="25294.67" departLane="free" departSpeed="max" fromTaz="05" id="9163" toTaz="06" />
    <trip depart="25295.45" departLane="free" departSpeed="max" fromTaz="09" id="3889" toTaz="01" />
    <trip depart="25295.74" departLane="free" departSpeed="max" fromTaz="10" id="3695" toTaz="02" />
    <trip depart="25297.49" departLane="free" departSpeed="max" fromTaz="07" id="2961" toTaz="10" />
    <trip depart="25297.78" departLane="free" departSpeed="max" fromTaz="10" id="5390" toTaz="03" />
    <trip depart="25297.94" departLane="free" departSpeed="max" fromTaz="09" id="3871" toTaz="13" />
    <trip depart="25298.40" departLane="free" departSpeed="max" fromTaz="07" id="3685" toTaz="04" />
    <trip depart="25298.63" departLane="free" departSpeed="max" fromTaz="10" id="5029" toTaz="03" />
    <trip depart="25298.74" departLane="free" departSpeed="max" fromTaz="10" id="5392" toTaz="03" />
    <trip depart="25300.26" departLane="free" departSpeed="max" fromTaz="00" id="1377" toTaz="07" />
    <trip depart="25300.90" departLane="free" departSpeed="max" fromTaz="00" id="4452" toTaz="07" />
    <trip depart="25301.42" departLane="free" departSpeed="max" fromTaz="04" id="9023" toTaz="02" />
    <trip depart="25301.43" departLane="free" departSpeed="max" fromTaz="10" id="223" toTaz="13" />
    <trip depart="25302.69" departLane="free" departSpeed="max" fromTaz="10" id="6182" toTaz="03" />
    <trip depart="25302.91" departLane="free" departSpeed="max" fromTaz="13" id="1288" toTaz="01" />
    <trip depart="25303.47" departLane="free" departSpeed="max" fromTaz="04" id="1894" toTaz="08" />
    <trip depart="25303.83" departLane="free" departSpeed="max" fromTaz="10" id="1621" toTaz="02" />
    <trip depart="25304.14" departLane="free" departSpeed="max" fromTaz="06" id="1363" toTaz="11" />
    <trip depart="25305.02" departLane="free" departSpeed="max" fromTaz="10" id="6061" toTaz="03" />
    <trip depart="25305.13" departLane="free" departSpeed="max" fromTaz="01" id="4406" toTaz="02" />
    <trip depart="25305.18" departLane="free" departSpeed="max" fromTaz="09" id="508" toTaz="10" />
    <trip depart="25305.24" departLane="free" departSpeed="max" fromTaz="03" id="1746" toTaz="10" />
    <trip depart="25305.58" departLane="free" departSpeed="max" fromTaz="04" id="9040" toTaz="08" />
    <trip depart="25305.65" departLane="free" departSpeed="max" fromTaz="10" id="7548" toTaz="03" />
    <trip depart="25306.30" departLane="free" departSpeed="max" fromTaz="04" id="8980" toTaz="12" />
    <trip depart="25306.94" departLane="free" departSpeed="max" fromTaz="13" id="399" toTaz="01" />
    <trip depart="25307.93" departLane="free" departSpeed="max" fromTaz="08" id="367" toTaz="12" />
    <trip depart="25308.20" departLane="free" departSpeed="max" fromTaz="01" id="1997" toTaz="05" />
    <trip depart="25308.25" departLane="free" departSpeed="max" fromTaz="05" id="694" toTaz="10" />
    <trip depart="25308.26" departLane="free" departSpeed="max" fromTaz="03" id="3186" toTaz="08" />
    <trip depart="25308.76" departLane="free" departSpeed="max" fromTaz="07" id="1332" toTaz="01" />
    <trip depart="25308.82" departLane="free" departSpeed="max" fromTaz="08" id="8615" toTaz="00" />
    <trip depart="25308.86" departLane="free" departSpeed="max" fromTaz="00" id="871" toTaz="03" />
    <trip depart="25310.09" departLane="free" departSpeed="max" fromTaz="06" id="882" toTaz="03" />
    <trip depart="25310.56" departLane="free" departSpeed="max" fromTaz="10" id="7374" toTaz="03" />
    <trip depart="25310.79" departLane="free" departSpeed="max" fromTaz="10" id="5670" toTaz="03" />
    <trip depart="25311.10" departLane="free" departSpeed="max" fromTaz="01" id="4272" toTaz="09" />
    <trip depart="25311.40" departLane="free" departSpeed="max" fromTaz="10" id="5160" toTaz="03" />
    <trip depart="25311.74" departLane="free" departSpeed="max" fromTaz="10" id="7344" toTaz="03" />
    <trip depart="25312.39" departLane="free" departSpeed="max" fromTaz="00" id="9074" toTaz="03" />
    <trip depart="25312.78" departLane="free" departSpeed="max" fromTaz="00" id="2762" toTaz="06" />
    <trip depart="25312.83" departLane="free" departSpeed="max" fromTaz="10" id="7670" toTaz="03" />
    <trip depart="25314.89" departLane="free" departSpeed="max" fromTaz="10" id="370" toTaz="02" />
    <trip depart="25315.00" departLane="free" departSpeed="max" fromTaz="09" id="4169" toTaz="01" />
    <trip depart="25315.31" departLane="free" departSpeed="max" fromTaz="10" id="6755" toTaz="03" />
    <trip depart="25315.62" departLane="free" departSpeed="max" fromTaz="10" id="7766" toTaz="03" />
    <trip depart="25316.59" departLane="free" departSpeed="max" fromTaz="04" id="129" toTaz="07" />
    <trip depart="25317.37" departLane="free" departSpeed="max" fromTaz="10" id="7119" toTaz="03" />
    <trip depart="25318.03" departLane="free" departSpeed="max" fromTaz="10" id="5258" toTaz="03" />
    <trip depart="25318.14" departLane="free" departSpeed="max" fromTaz="10" id="5106" toTaz="03" />
    <trip depart="25318.42" departLane="free" departSpeed="max" fromTaz="05" id="3243" toTaz="02" />
    <trip depart="25318.55" departLane="free" departSpeed="max" fromTaz="10" id="8206" toTaz="03" />
    <trip depart="25318.58" departLane="free" departSpeed="max" fromTaz="08" id="8960" toTaz="02" />
    <trip depart="25319.31" departLane="free" departSpeed="max" fromTaz="10" id="5480" toTaz="03" />
    <trip depart="25319.96" departLane="free" departSpeed="max" fromTaz="10" id="6449" toTaz="03" />
    <trip depart="25320.35" departLane="free" departSpeed="max" fromTaz="07" id="956" toTaz="13" />
    <trip depart="25320.35" departLane="free" departSpeed="max" fromTaz="10" id="6887" toTaz="03" />
    <trip depart="25321.15" departLane="free" departSpeed="max" fromTaz="12" id="1935" toTaz="01" />
    <trip depart="25321.51" departLane="free" departSpeed="max" fromTaz="10" id="6794" toTaz="03" />
    <trip depart="25321.53" departLane="free" departSpeed="max" fromTaz="10" id="8192" toTaz="03" />
    <trip depart="25321.91" departLane="free" departSpeed="max" fromTaz="09" id="1819" toTaz="11" />
    <trip depart="25322.06" departLane="free" departSpeed="max" fromTaz="10" id="5122" toTaz="03" />
    <trip depart="25322.68" departLane="free" departSpeed="max" fromTaz="07" id="9215" toTaz="02" />
    <trip depart="25323.13" departLane="free" departSpeed="max" fromTaz="10" id="6294" toTaz="03" />
    <trip depart="25323.28" departLane="free" departSpeed="max" fromTaz="06" id="4003" toTaz="10" />
    <trip depart="25323.30" departLane="free" departSpeed="max" fromTaz="06" id="1164" toTaz="01" />
    <trip depart="25323.85" departLane="free" departSpeed="max" fromTaz="03" id="4271" toTaz="13" />